<connections><connection from="edge-1:0/0:0.-45" fromLane="0" to="edge0:0/0:-1" toLane="0" /><connection from="edge-1:0/0:0.-45" fromLane="0" to="edge0:0/1:0" toLane="0" /><connection from="edge-1:0/0:0.-45" fromLane="1" to="edge0:0/1:0" toLane="1" /><connection from="edge-1:0/0:0.-45" fromLane="2" to="edge0:0/0:1" toLane="0" /><connection from="edge0:-1/0:0.-45" fromLane="0" to="edge0:0/1:0" toLane="0" /><connection from="edge0:-1/0:0.-45" fromLane="0" to="edge0:0/0:1" toLane="0" /><connection from="edge0:-1/0:0.-45" fromLane="1" to="edge0:0/0:1" toLane="1" /><connection from="edge0:-1/0:0.-45" fromLane="2" to="edge0:0/-1:0" toLane="1" /><connection from="edge1:0/0:0.-45" fromLane="0" to="edge0:0/0:1" toLane="0" /><connection from="edge1:0/0:0.-45" fromLane="0" to="edge0:0/-1:0" toLane="0" /><connection from="edge1:0/0:0.-45" fromLane="1" to="edge0:0/-1:0" toLane="1" /><connection from="edge1:0/0:0.-45" fromLane="2" to="edge0:0/0:-1" toLane="0" /><connection from="edge0:1/0:0.-45" fromLane="0" to="edge0:0/-1:0" toLane="0" /><connection from="edge0:1/0:0.-45" fromLane="0" to="edge0:0/0:-1" toLane="0" /><connection from="edge0:1/0:0.-45" fromLane="1" to="edge0:0/0:-1" toLane="1" /><connection from="edge0:1/0:0.-45" fromLane="2" to="edge0:0/1:0" toLane="0" /><connection from="edge-1:1/0:1.-45" fromLane="0" to="edge0:1/0:0" toLane="0" /><connection from="edge-1:1/0:1.-45" fromLane="0" to="edge0:1/1:1" toLane="0" /><connection from="edge-1:1/0:1.-45" fromLane="1" to="edge0:1/1:1" toLane="1" /><connection from="edge-1:1/0:1.-45" fromLane="2" to="edge0:1/0:2" toLane="0" /><connection from="edge0:0/0:1.-45" fromLane="0" to="edge0:1/1:1" toLane="0" /><connection from="edge0:0/0:1.-45" fromLane="0" to="edge0:1/0:2" toLane="0" /><connection from="edge0:0/0:1.-45" fromLane="1" to="edge0:1/0:2" toLane="1" /><connection from="edge0:0/0:1.-45" fromLane="2" to="edge0:1/-1:1" toLane="1" /><connection from="edge1:1/0:1.-45" fromLane="0" to="edge0:1/0:2" toLane="0" /><connection from="edge1:1/0:1.-45" fromLane="0" to="edge0:1/-1:1" toLane="0" /><connection from="edge1:1/0:1.-45" fromLane="1" to="edge0:1/-1:1" toLane="1" /><connection from="edge1:1/0:1.-45" fromLane="2" to="edge0:1/0:0" toLane="0" /><connection from="edge0:2/0:1.-45" fromLane="0" to="edge0:1/-1:1" toLane="0" /><connection from="edge0:2/0:1.-45" fromLane="0" to="edge0:1/0:0" toLane="0" /><connection from="edge0:2/0:1.-45" fromLane="1" to="edge0:1/0:0" toLane="1" /><connection from="edge0:2/0:1.-45" fromLane="2" to="edge0:1/1:1" toLane="0" /><connection from="edge-1:2/0:2.-45" fromLane="0" to="edge0:2/0:1" toLane="0" /><connection from="edge-1:2/0:2.-45" fromLane="0" to="edge0:2/1:2" toLane="0" /><connection from="edge-1:2/0:2.-45" fromLane="1" to="edge0:2/1:2" toLane="1" /><connection from="edge-1:2/0:2.-45" fromLane="2" to="edge0:2/0:3" toLane="0" /><connection from="edge0:1/0:2.-45" fromLane="0" to="edge0:2/1:2" toLane="0" /><connection from="edge0:1/0:2.-45" fromLane="0" to="edge0:2/0:3" toLane="0" /><connection from="edge0:1/0:2.-45" fromLane="1" to="edge0:2/0:3" toLane="1" /><connection from="edge0:1/0:2.-45" fromLane="2" to="edge0:2/-1:2" toLane="1" /><connection from="edge1:2/0:2.-45" fromLane="0" to="edge0:2/0:3" toLane="0" /><connection from="edge1:2/0:2.-45" fromLane="0" to="edge0:2/-1:2" toLane="0" /><connection from="edge1:2/0:2.-45" fromLane="1" to="edge0:2/-1:2" toLane="1" /><connection from="edge1:2/0:2.-45" fromLane="2" to="edge0:2/0:1" toLane="0" /><connection from="edge0:3/0:2.-45" fromLane="0" to="edge0:2/-1:2" toLane="0" /><connection from="edge0:3/0:2.-45" fromLane="0" to="edge0:2/0:1" toLane="0" /><connection from="edge0:3/0:2.-45" fromLane="1" to="edge0:2/0:1" toLane="1" /><connection from="edge0:3/0:2.-45" fromLane="2" to="edge0:2/1:2" toLane="0" /><connection from="edge-1:3/0:3.-45" fromLane="0" to="edge0:3/0:2" toLane="0" /><connection from="edge-1:3/0:3.-45" fromLane="0" to="edge0:3/1:3" toLane="0" /><connection from="edge-1:3/0:3.-45" fromLane="1" to="edge0:3/1:3" toLane="1" /><connection from="edge-1:3/0:3.-45" fromLane="2" to="edge0:3/0:4" toLane="0" /><connection from="edge0:2/0:3.-45" fromLane="0" to="edge0:3/1:3" toLane="0" /><connection from="edge0:2/0:3.-45" fromLane="0" to="edge0:3/0:4" toLane="0" /><connection from="edge0:2/0:3.-45" fromLane="1" to="edge0:3/0:4" toLane="1" /><connection from="edge0:2/0:3.-45" fromLane="2" to="edge0:3/-1:3" toLane="1" /><connection from="edge1:3/0:3.-45" fromLane="0" to="edge0:3/0:4" toLane="0" /><connection from="edge1:3/0:3.-45" fromLane="0" to="edge0:3/-1:3" toLane="0" /><connection from="edge1:3/0:3.-45" fromLane="1" to="edge0:3/-1:3" toLane="1" /><connection from="edge1:3/0:3.-45" fromLane="2" to="edge0:3/0:2" toLane="0" /><connection from="edge0:4/0:3.-45" fromLane="0" to="edge0:3/-1:3" toLane="0" /><connection from="edge0:4/0:3.-45" fromLane="0" to="edge0:3/0:2" toLane="0" /><connection from="edge0:4/0:3.-45" fromLane="1" to="edge0:3/0:2" toLane="1" /><connection from="edge0:4/0:3.-45" fromLane="2" to="edge0:3/1:3" toLane="0" /><connection from="edge0:0/1:0.-45" fromLane="0" to="edge1:0/1:-1" toLane="0" /><connection from="edge0:0/1:0.-45" fromLane="0" to="edge1:0/2:0" toLane="0" /><connection from="edge0:0/1:0.-45" fromLane="1" to="edge1:0/2:0" toLane="1" /><connection from="edge0:0/1:0.-45" fromLane="2" to="edge1:0/1:1" toLane="0" /><connection from="edge1:-1/1:0.-45" fromLane="0" to="edge1:0/2:0" toLane="0" /><connection from="edge1:-1/1:0.-45" fromLane="0" to="edge1:0/1:1" toLane="0" /><connection from="edge1:-1/1:0.-45" fromLane="1" to="edge1:0/1:1" toLane="1" /><connection from="edge1:-1/1:0.-45" fromLane="2" to="edge1:0/0:0" toLane="1" /><connection from="edge2:0/1:0.-45" fromLane="0" to="edge1:0/1:1" toLane="0" /><connection from="edge2:0/1:0.-45" fromLane="0" to="edge1:0/0:0" toLane="0" /><connection from="edge2:0/1:0.-45" fromLane="1" to="edge1:0/0:0" toLane="1" /><connection from="edge2:0/1:0.-45" fromLane="2" to="edge1:0/1:-1" toLane="0" /><connection from="edge1:1/1:0.-45" fromLane="0" to="edge1:0/0:0" toLane="0" /><connection from="edge1:1/1:0.-45" fromLane="0" to="edge1:0/1:-1" toLane="0" /><connection from="edge1:1/1:0.-45" fromLane="1" to="edge1:0/1:-1" toLane="1" /><connection from="edge1:1/1:0.-45" fromLane="2" to="edge1:0/2:0" toLane="0" /><connection from="edge0:1/1:1.-45" fromLane="0" to="edge1:1/1:0" toLane="0" /><connection from="edge0:1/1:1.-45" fromLane="0" to="edge1:1/2:1" toLane="0" /><connection from="edge0:1/1:1.-45" fromLane="1" to="edge1:1/2:1" toLane="1" /><connection from="edge0:1/1:1.-45" fromLane="2" to="edge1:1/1:2" toLane="0" /><connection from="edge1:0/1:1.-45" fromLane="0" to="edge1:1/2:1" toLane="0" /><connection from="edge1:0/1:1.-45" fromLane="0" to="edge1:1/1:2" toLane="0" /><connection from="edge1:0/1:1.-45" fromLane="1" to="edge1:1/1:2" toLane="1" /><connection from="edge1:0/1:1.-45" fromLane="2" to="edge1:1/0:1" toLane="1" /><connection from="edge2:1/1:1.-45" fromLane="0" to="edge1:1/1:2" toLane="0" /><connection from="edge2:1/1:1.-45" fromLane="0" to="edge1:1/0:1" toLane="0" /><connection from="edge2:1/1:1.-45" fromLane="1" to="edge1:1/0:1" toLane="1" /><connection from="edge2:1/1:1.-45" fromLane="2" to="edge1:1/1:0" toLane="0" /><connection from="edge1:2/1:1.-45" fromLane="0" to="edge1:1/0:1" toLane="0" /><connection from="edge1:2/1:1.-45" fromLane="0" to="edge1:1/1:0" toLane="0" /><connection from="edge1:2/1:1.-45" fromLane="1" to="edge1:1/1:0" toLane="1" /><connection from="edge1:2/1:1.-45" fromLane="2" to="edge1:1/2:1" toLane="0" /><connection from="edge0:2/1:2.-45" fromLane="0" to="edge1:2/1:1" toLane="0" /><connection from="edge0:2/1:2.-45" fromLane="0" to="edge1:2/2:2" toLane="0" /><connection from="edge0:2/1:2.-45" fromLane="1" to="edge1:2/2:2" toLane="1" /><connection from="edge0:2/1:2.-45" fromLane="2" to="edge1:2/1:3" toLane="0" /><connection from="edge1:1/1:2.-45" fromLane="0" to="edge1:2/2:2" toLane="0" /><connection from="edge1:1/1:2.-45" fromLane="0" to="edge1:2/1:3" toLane="0" /><connection from="edge1:1/1:2.-45" fromLane="1" to="edge1:2/1:3" toLane="1" /><connection from="edge1:1/1:2.-45" fromLane="2" to="edge1:2/0:2" toLane="1" /><connection from="edge2:2/1:2.-45" fromLane="0" to="edge1:2/1:3" toLane="0" /><connection from="edge2:2/1:2.-45" fromLane="0" to="edge1:2/0:2" toLane="0" /><connection from="edge2:2/1:2.-45" fromLane="1" to="edge1:2/0:2" toLane="1" /><connection from="edge2:2/1:2.-45" fromLane="2" to="edge1:2/1:1" toLane="0" /><connection from="edge1:3/1:2.-45" fromLane="0" to="edge1:2/0:2" toLane="0" /><connection from="edge1:3/1:2.-45" fromLane="0" to="edge1:2/1:1" toLane="0" /><connection from="edge1:3/1:2.-45" fromLane="1" to="edge1:2/1:1" toLane="1" /><connection from="edge1:3/1:2.-45" fromLane="2" to="edge1:2/2:2" toLane="0" /><connection from="edge0:3/1:3.-45" fromLane="0" to="edge1:3/1:2" toLane="0" /><connection from="edge0:3/1:3.-45" fromLane="0" to="edge1:3/2:3" toLane="0" /><connection from="edge0:3/1:3.-45" fromLane="1" to="edge1:3/2:3" toLane="1" /><connection from="edge0:3/1:3.-45" fromLane="2" to="edge1:3/1:4" toLane="0" /><connection from="edge1:2/1:3.-45" fromLane="0" to="edge1:3/2:3" toLane="0" /><connection from="edge1:2/1:3.-45" fromLane="0" to="edge1:3/1:4" toLane="0" /><connection from="edge1:2/1:3.-45" fromLane="1" to="edge1:3/1:4" toLane="1" /><connection from="edge1:2/1:3.-45" fromLane="2" to="edge1:3/0:3" toLane="1" /><connection from="edge2:3/1:3.-45" fromLane="0" to="edge1:3/1:4" toLane="0" /><connection from="edge2:3/1:3.-45" fromLane="0" to="edge1:3/0:3" toLane="0" /><connection from="edge2:3/1:3.-45" fromLane="1" to="edge1:3/0:3" toLane="1" /><connection from="edge2:3/1:3.-45" fromLane="2" to="edge1:3/1:2" toLane="0" /><connection from="edge1:4/1:3.-45" fromLane="0" to="edge1:3/0:3" toLane="0" /><connection from="edge1:4/1:3.-45" fromLane="0" to="edge1:3/1:2" toLane="0" /><connection from="edge1:4/1:3.-45" fromLane="1" to="edge1:3/1:2" toLane="1" /><connection from="edge1:4/1:3.-45" fromLane="2" to="edge1:3/2:3" toLane="0" /><connection from="edge1:0/2:0.-45" fromLane="0" to="edge2:0/2:-1" toLane="0" /><connection from="edge1:0/2:0.-45" fromLane="0" to="edge2:0/3:0" toLane="0" /><connection from="edge1:0/2:0.-45" fromLane="1" to="edge2:0/3:0" toLane="1" /><connection from="edge1:0/2:0.-45" fromLane="2" to="edge2:0/2:1" toLane="0" /><connection from="edge2:-1/2:0.-45" fromLane="0" to="edge2:0/3:0" toLane="0" /><connection from="edge2:-1/2:0.-45" fromLane="0" to="edge2:0/2:1" toLane="0" /><connection from="edge2:-1/2:0.-45" fromLane="1" to="edge2:0/2:1" toLane="1" /><connection from="edge2:-1/2:0.-45" fromLane="2" to="edge2:0/1:0" toLane="1" /><connection from="edge3:0/2:0.-45" fromLane="0" to="edge2:0/2:1" toLane="0" /><connection from="edge3:0/2:0.-45" fromLane="0" to="edge2:0/1:0" toLane="0" /><connection from="edge3:0/2:0.-45" fromLane="1" to="edge2:0/1:0" toLane="1" /><connection from="edge3:0/2:0.-45" fromLane="2" to="edge2:0/2:-1" toLane="0" /><connection from="edge2:1/2:0.-45" fromLane="0" to="edge2:0/1:0" toLane="0" /><connection from="edge2:1/2:0.-45" fromLane="0" to="edge2:0/2:-1" toLane="0" /><connection from="edge2:1/2:0.-45" fromLane="1" to="edge2:0/2:-1" toLane="1" /><connection from="edge2:1/2:0.-45" fromLane="2" to="edge2:0/3:0" toLane="0" /><connection from="edge1:1/2:1.-45" fromLane="0" to="edge2:1/2:0" toLane="0" /><connection from="edge1:1/2:1.-45" fromLane="0" to="edge2:1/3:1" toLane="0" /><connection from="edge1:1/2:1.-45" fromLane="1" to="edge2:1/3:1" toLane="1" /><connection from="edge1:1/2:1.-45" fromLane="2" to="edge2:1/2:2" toLane="0" /><connection from="edge2:0/2:1.-45" fromLane="0" to="edge2:1/3:1" toLane="0" /><connection from="edge2:0/2:1.-45" fromLane="0" to="edge2:1/2:2" toLane="0" /><connection from="edge2:0/2:1.-45" fromLane="1" to="edge2:1/2:2" toLane="1" /><connection from="edge2:0/2:1.-45" fromLane="2" to="edge2:1/1:1" toLane="1" /><connection from="edge3:1/2:1.-45" fromLane="0" to="edge2:1/2:2" toLane="0" /><connection from="edge3:1/2:1.-45" fromLane="0" to="edge2:1/1:1" toLane="0" /><connection from="edge3:1/2:1.-45" fromLane="1" to="edge2:1/1:1" toLane="1" /><connection from="edge3:1/2:1.-45" fromLane="2" to="edge2:1/2:0" toLane="0" /><connection from="edge2:2/2:1.-45" fromLane="0" to="edge2:1/1:1" toLane="0" /><connection from="edge2:2/2:1.-45" fromLane="0" to="edge2:1/2:0" toLane="0" /><connection from="edge2:2/2:1.-45" fromLane="1" to="edge2:1/2:0" toLane="1" /><connection from="edge2:2/2:1.-45" fromLane="2" to="edge2:1/3:1" toLane="0" /><connection from="edge1:2/2:2.-45" fromLane="0" to="edge2:2/2:1" toLane="0" /><connection from="edge1:2/2:2.-45" fromLane="0" to="edge2:2/3:2" toLane="0" /><connection from="edge1:2/2:2.-45" fromLane="1" to="edge2:2/3:2" toLane="1" /><connection from="edge1:2/2:2.-45" fromLane="2" to="edge2:2/2:3" toLane="0" /><connection from="edge2:1/2:2.-45" fromLane="0" to="edge2:2/3:2" toLane="0" /><connection from="edge2:1/2:2.-45" fromLane="0" to="edge2:2/2:3" toLane="0" /><connection from="edge2:1/2:2.-45" fromLane="1" to="edge2:2/2:3" toLane="1" /><connection from="edge2:1/2:2.-45" fromLane="2" to="edge2:2/1:2" toLane="1" /><connection from="edge3:2/2:2.-45" fromLane="0" to="edge2:2/2:3" toLane="0" /><connection from="edge3:2/2:2.-45" fromLane="0" to="edge2:2/1:2" toLane="0" /><connection from="edge3:2/2:2.-45" fromLane="1" to="edge2:2/1:2" toLane="1" /><connection from="edge3:2/2:2.-45" fromLane="2" to="edge2:2/2:1" toLane="0" /><connection from="edge2:3/2:2.-45" fromLane="0" to="edge2:2/1:2" toLane="0" /><connection from="edge2:3/2:2.-45" fromLane="0" to="edge2:2/2:1" toLane="0" /><connection from="edge2:3/2:2.-45" fromLane="1" to="edge2:2/2:1" toLane="1" /><connection from="edge2:3/2:2.-45" fromLane="2" to="edge2:2/3:2" toLane="0" /><connection from="edge1:3/2:3.-45" fromLane="0" to="edge2:3/2:2" toLane="0" /><connection from="edge1:3/2:3.-45" fromLane="0" to="edge2:3/3:3" toLane="0" /><connection from="edge1:3/2:3.-45" fromLane="1" to="edge2:3/3:3" toLane="1" /><connection from="edge1:3/2:3.-45" fromLane="2" to="edge2:3/2:4" toLane="0" /><connection from="edge2:2/2:3.-45" fromLane="0" to="edge2:3/3:3" toLane="0" /><connection from="edge2:2/2:3.-45" fromLane="0" to="edge2:3/2:4" toLane="0" /><connection from="edge2:2/2:3.-45" fromLane="1" to="edge2:3/2:4" toLane="1" /><connection from="edge2:2/2:3.-45" fromLane="2" to="edge2:3/1:3" toLane="1" /><connection from="edge3:3/2:3.-45" fromLane="0" to="edge2:3/2:4" toLane="0" /><connection from="edge3:3/2:3.-45" fromLane="0" to="edge2:3/1:3" toLane="0" /><connection from="edge3:3/2:3.-45" fromLane="1" to="edge2:3/1:3" toLane="1" /><connection from="edge3:3/2:3.-45" fromLane="2" to="edge2:3/2:2" toLane="0" /><connection from="edge2:4/2:3.-45" fromLane="0" to="edge2:3/1:3" toLane="0" /><connection from="edge2:4/2:3.-45" fromLane="0" to="edge2:3/2:2" toLane="0" /><connection from="edge2:4/2:3.-45" fromLane="1" to="edge2:3/2:2" toLane="1" /><connection from="edge2:4/2:3.-45" fromLane="2" to="edge2:3/3:3" toLane="0" /><connection from="edge2:0/3:0.-45" fromLane="0" to="edge3:0/3:-1" toLane="0" /><connection from="edge2:0/3:0.-45" fromLane="0" to="edge3:0/4:0" toLane="0" /><connection from="edge2:0/3:0.-45" fromLane="1" to="edge3:0/4:0" toLane="1" /><connection from="edge2:0/3:0.-45" fromLane="2" to="edge3:0/3:1" toLane="0" /><connection from="edge3:-1/3:0.-45" fromLane="0" to="edge3:0/4:0" toLane="0" /><connection from="edge3:-1/3:0.-45" fromLane="0" to="edge3:0/3:1" toLane="0" /><connection from="edge3:-1/3:0.-45" fromLane="1" to="edge3:0/3:1" toLane="1" /><connection from="edge3:-1/3:0.-45" fromLane="2" to="edge3:0/2:0" toLane="1" /><connection from="edge4:0/3:0.-45" fromLane="0" to="edge3:0/3:1" toLane="0" /><connection from="edge4:0/3:0.-45" fromLane="0" to="edge3:0/2:0" toLane="0" /><connection from="edge4:0/3:0.-45" fromLane="1" to="edge3:0/2:0" toLane="1" /><connection from="edge4:0/3:0.-45" fromLane="2" to="edge3:0/3:-1" toLane="0" /><connection from="edge3:1/3:0.-45" fromLane="0" to="edge3:0/2:0" toLane="0" /><connection from="edge3:1/3:0.-45" fromLane="0" to="edge3:0/3:-1" toLane="0" /><connection from="edge3:1/3:0.-45" fromLane="1" to="edge3:0/3:-1" toLane="1" /><connection from="edge3:1/3:0.-45" fromLane="2" to="edge3:0/4:0" toLane="0" /><connection from="edge2:1/3:1.-45" fromLane="0" to="edge3:1/3:0" toLane="0" /><connection from="edge2:1/3:1.-45" fromLane="0" to="edge3:1/4:1" toLane="0" /><connection from="edge2:1/3:1.-45" fromLane="1" to="edge3:1/4:1" toLane="1" /><connection from="edge2:1/3:1.-45" fromLane="2" to="edge3:1/3:2" toLane="0" /><connection from="edge3:0/3:1.-45" fromLane="0" to="edge3:1/4:1" toLane="0" /><connection from="edge3:0/3:1.-45" fromLane="0" to="edge3:1/3:2" toLane="0" /><connection from="edge3:0/3:1.-45" fromLane="1" to="edge3:1/3:2" toLane="1" /><connection from="edge3:0/3:1.-45" fromLane="2" to="edge3:1/2:1" toLane="1" /><connection from="edge4:1/3:1.-45" fromLane="0" to="edge3:1/3:2" toLane="0" /><connection from="edge4:1/3:1.-45" fromLane="0" to="edge3:1/2:1" toLane="0" /><connection from="edge4:1/3:1.-45" fromLane="1" to="edge3:1/2:1" toLane="1" /><connection from="edge4:1/3:1.-45" fromLane="2" to="edge3:1/3:0" toLane="0" /><connection from="edge3:2/3:1.-45" fromLane="0" to="edge3:1/2:1" toLane="0" /><connection from="edge3:2/3:1.-45" fromLane="0" to="edge3:1/3:0" toLane="0" /><connection from="edge3:2/3:1.-45" fromLane="1" to="edge3:1/3:0" toLane="1" /><connection from="edge3:2/3:1.-45" fromLane="2" to="edge3:1/4:1" toLane="0" /><connection from="edge2:2/3:2.-45" fromLane="0" to="edge3:2/3:1" toLane="0" /><connection from="edge2:2/3:2.-45" fromLane="0" to="edge3:2/4:2" toLane="0" /><connection from="edge2:2/3:2.-45" fromLane="1" to="edge3:2/4:2" toLane="1" /><connection from="edge2:2/3:2.-45" fromLane="2" to="edge3:2/3:3" toLane="0" /><connection from="edge3:1/3:2.-45" fromLane="0" to="edge3:2/4:2" toLane="0" /><connection from="edge3:1/3:2.-45" fromLane="0" to="edge3:2/3:3" toLane="0" /><connection from="edge3:1/3:2.-45" fromLane="1" to="edge3:2/3:3" toLane="1" /><connection from="edge3:1/3:2.-45" fromLane="2" to="edge3:2/2:2" toLane="1" /><connection from="edge4:2/3:2.-45" fromLane="0" to="edge3:2/3:3" toLane="0" /><connection from="edge4:2/3:2.-45" fromLane="0" to="edge3:2/2:2" toLane="0" /><connection from="edge4:2/3:2.-45" fromLane="1" to="edge3:2/2:2" toLane="1" /><connection from="edge4:2/3:2.-45" fromLane="2" to="edge3:2/3:1" toLane="0" /><connection from="edge3:3/3:2.-45" fromLane="0" to="edge3:2/2:2" toLane="0" /><connection from="edge3:3/3:2.-45" fromLane="0" to="edge3:2/3:1" toLane="0" /><connection from="edge3:3/3:2.-45" fromLane="1" to="edge3:2/3:1" toLane="1" /><connection from="edge3:3/3:2.-45" fromLane="2" to="edge3:2/4:2" toLane="0" /><connection from="edge2:3/3:3.-45" fromLane="0" to="edge3:3/3:2" toLane="0" /><connection from="edge2:3/3:3.-45" fromLane="0" to="edge3:3/4:3" toLane="0" /><connection from="edge2:3/3:3.-45" fromLane="1" to="edge3:3/4:3" toLane="1" /><connection from="edge2:3/3:3.-45" fromLane="2" to="edge3:3/3:4" toLane="0" /><connection from="edge3:2/3:3.-45" fromLane="0" to="edge3:3/4:3" toLane="0" /><connection from="edge3:2/3:3.-45" fromLane="0" to="edge3:3/3:4" toLane="0" /><connection from="edge3:2/3:3.-45" fromLane="1" to="edge3:3/3:4" toLane="1" /><connection from="edge3:2/3:3.-45" fromLane="2" to="edge3:3/2:3" toLane="1" /><connection from="edge4:3/3:3.-45" fromLane="0" to="edge3:3/3:4" toLane="0" /><connection from="edge4:3/3:3.-45" fromLane="0" to="edge3:3/2:3" toLane="0" /><connection from="edge4:3/3:3.-45" fromLane="1" to="edge3:3/2:3" toLane="1" /><connection from="edge4:3/3:3.-45" fromLane="2" to="edge3:3/3:2" toLane="0" /><connection from="edge3:4/3:3.-45" fromLane="0" to="edge3:3/2:3" toLane="0" /><connection from="edge3:4/3:3.-45" fromLane="0" to="edge3:3/3:2" toLane="0" /><connection from="edge3:4/3:3.-45" fromLane="1" to="edge3:3/3:2" toLane="1" /><connection from="edge3:4/3:3.-45" fromLane="2" to="edge3:3/4:3" toLane="0" /></connections>