<?xml version="1.0" encoding="UTF-8"?>
<additional>
    <tlLogic id="node0:0" type="static" programID="a" offset="0">
        <phase duration="20" state="GGGgrrrrGGGgrrrr"/>
        <phase duration="3" state="yyygrrrryyygrrrr"/>
        <phase duration="5" state="rrrGrrrrrrrGrrrr"/>
        <phase duration="3" state="rrryrrrrrrryrrrr"/>
        <phase duration="30" state="rrrrGGGgrrrrGGGg"/>
        <phase duration="3" state="rrrryyygrrrryyyg"/>
        <phase duration="6" state="rrrrrrrGrrrrrrrG"/>
        <phase duration="3" state="rrrrrrryrrrrrrry"/>
    </tlLogic>
    <tlLogic id="node0:1" type="static" programID="a" offset="0">
        <phase duration="19" state="GGGgrrrrGGGgrrrr"/>
        <phase duration="3" state="yyygrrrryyygrrrr"/>
        <phase duration="4" state="rrrGrrrrrrrGrrrr"/>
        <phase duration="3" state="rrryrrrrrrryrrrr"/>
        <phase duration="29" state="rrrrGGGgrrrrGGGg"/>
        <phase duration="3" state="rrrryyygrrrryyyg"/>
        <phase duration="6" state="rrrrrrrGrrrrrrrG"/>
        <phase duration="3" state="rrrrrrryrrrrrrry"/>
    </tlLogic>
    <tlLogic id="node0:2" type="static" programID="a" offset="0">
        <phase duration="18" state="GGGgrrrrGGGgrrrr"/>
        <phase duration="3" state="yyygrrrryyygrrrr"/>
        <phase duration="4" state="rrrGrrrrrrrGrrrr"/>
        <phase duration="3" state="rrryrrrrrrryrrrr"/>
        <phase duration="29" state="rrrrGGGgrrrrGGGg"/>
        <phase duration="3" state="rrrryyygrrrryyyg"/>
        <phase duration="6" state="rrrrrrrGrrrrrrrG"/>
        <phase duration="3" state="rrrrrrryrrrrrrry"/>
    </tlLogic>
    <tlLogic id="node0:3" type="static" programID="a" offset="0">
        <phase duration="21" state="GGGgrrrrGGGgrrrr"/>
        <phase duration="3" state="yyygrrrryyygrrrr"/>
        <phase duration="5" state="rrrGrrrrrrrGrrrr"/>
        <phase duration="3" state="rrryrrrrrrryrrrr"/>
        <phase duration="29" state="rrrrGGGgrrrrGGGg"/>
        <phase duration="3" state="rrrryyygrrrryyyg"/>
        <phase duration="8" state="rrrrrrrGrrrrrrrG"/>
        <phase duration="3" state="rrrrrrryrrrrrrry"/>
    </tlLogic>
    <tlLogic id="node1:0" type="static" programID="a" offset="0">
        <phase duration="19" state="GGGgrrrrGGGgrrrr"/>
        <phase duration="3" state="yyygrrrryyygrrrr"/>
        <phase duration="4" state="rrrGrrrrrrrGrrrr"/>
        <phase duration="3" state="rrryrrrrrrryrrrr"/>
        <phase duration="26" state="rrrrGGGgrrrrGGGg"/>
        <phase duration="3" state="rrrryyygrrrryyyg"/>
        <phase duration="5" state="rrrrrrrGrrrrrrrG"/>
        <phase duration="3" state="rrrrrrryrrrrrrry"/>
    </tlLogic>
    <tlLogic id="node1:1" type="static" programID="a" offset="0">
        <phase duration="18" state="GGGgrrrrGGGgrrrr"/>
        <phase duration="3" state="yyygrrrryyygrrrr"/>
        <phase duration="4" state="rrrGrrrrrrrGrrrr"/>
        <phase duration="3" state="rrryrrrrrrryrrrr"/>
        <phase duration="26" state="rrrrGGGgrrrrGGGg"/>
        <phase duration="3" state="rrrryyygrrrryyyg"/>
        <phase duration="5" state="rrrrrrrGrrrrrrrG"/>
        <phase duration="3" state="rrrrrrryrrrrrrry"/>
    </tlLogic>
    <tlLogic id="node1:2" type="static" programID="a" offset="0">
        <phase duration="16" state="GGGgrrrrGGGgrrrr"/>
        <phase duration="3" state="yyygrrrryyygrrrr"/>
        <phase duration="4" state="rrrGrrrrrrrGrrrr"/>
        <phase duration="3" state="rrryrrrrrrryrrrr"/>
        <phase duration="24" state="rrrrGGGgrrrrGGGg"/>
        <phase duration="3" state="rrrryyygrrrryyyg"/>
        <phase duration="6" state="rrrrrrrGrrrrrrrG"/>
        <phase duration="3" state="rrrrrrryrrrrrrry"/>
    </tlLogic>
    <tlLogic id="node1:3" type="static" programID="a" offset="0">
        <phase duration="18" state="GGGgrrrrGGGgrrrr"/>
        <phase duration="3" state="yyygrrrryyygrrrr"/>
        <phase duration="4" state="rrrGrrrrrrrGrrrr"/>
        <phase duration="3" state="rrryrrrrrrryrrrr"/>
        <phase duration="24" state="rrrrGGGgrrrrGGGg"/>
        <phase duration="3" state="rrrryyygrrrryyyg"/>
        <phase duration="6" state="rrrrrrrGrrrrrrrG"/>
        <phase duration="3" state="rrrrrrryrrrrrrry"/>
    </tlLogic>
    <tlLogic id="node2:0" type="static" programID="a" offset="0">
        <phase duration="20" state="GGGgrrrrGGGgrrrr"/>
        <phase duration="3" state="yyygrrrryyygrrrr"/>
        <phase duration="5" state="rrrGrrrrrrrGrrrr"/>
        <phase duration="3" state="rrryrrrrrrryrrrr"/>
        <phase duration="25" state="rrrrGGGgrrrrGGGg"/>
        <phase duration="3" state="rrrryyygrrrryyyg"/>
        <phase duration="7" state="rrrrrrrGrrrrrrrG"/>
        <phase duration="3" state="rrrrrrryrrrrrrry"/>
    </tlLogic>
    <tlLogic id="node2:1" type="static" programID="a" offset="0">
        <phase duration="18" state="GGGgrrrrGGGgrrrr"/>
        <phase duration="3" state="yyygrrrryyygrrrr"/>
        <phase duration="4" state="rrrGrrrrrrrGrrrr"/>
        <phase duration="3" state="rrryrrrrrrryrrrr"/>
        <phase duration="25" state="rrrrGGGgrrrrGGGg"/>
        <phase duration="3" state="rrrryyygrrrryyyg"/>
        <phase duration="6" state="rrrrrrrGrrrrrrrG"/>
        <phase duration="3" state="rrrrrrryrrrrrrry"/>
    </tlLogic>
    <tlLogic id="node2:2" type="static" programID="a" offset="0">
        <phase duration="17" state="GGGgrrrrGGGgrrrr"/>
        <phase duration="3" state="yyygrrrryyygrrrr"/>
        <phase duration="4" state="rrrGrrrrrrrGrrrr"/>
        <phase duration="3" state="rrryrrrrrrryrrrr"/>
        <phase duration="25" state="rrrrGGGgrrrrGGGg"/>
        <phase duration="3" state="rrrryyygrrrryyyg"/>
        <phase duration="6" state="rrrrrrrGrrrrrrrG"/>
        <phase duration="3" state="rrrrrrryrrrrrrry"/>
    </tlLogic>
    <tlLogic id="node2:3" type="static" programID="a" offset="0">
        <phase duration="19" state="GGGgrrrrGGGgrrrr"/>
        <phase duration="3" state="yyygrrrryyygrrrr"/>
        <phase duration="4" state="rrrGrrrrrrrGrrrr"/>
        <phase duration="3" state="rrryrrrrrrryrrrr"/>
        <phase duration="26" state="rrrrGGGgrrrrGGGg"/>
        <phase duration="3" state="rrrryyygrrrryyyg"/>
        <phase duration="5" state="rrrrrrrGrrrrrrrG"/>
        <phase duration="3" state="rrrrrrryrrrrrrry"/>
    </tlLogic>
    <tlLogic id="node3:0" type="static" programID="a" offset="0">
        <phase duration="20" state="GGGgrrrrGGGgrrrr"/>
        <phase duration="3" state="yyygrrrryyygrrrr"/>
        <phase duration="4" state="rrrGrrrrrrrGrrrr"/>
        <phase duration="3" state="rrryrrrrrrryrrrr"/>
        <phase duration="29" state="rrrrGGGgrrrrGGGg"/>
        <phase duration="3" state="rrrryyygrrrryyyg"/>
        <phase duration="6" state="rrrrrrrGrrrrrrrG"/>
        <phase duration="3" state="rrrrrrryrrrrrrry"/>
    </tlLogic>
    <tlLogic id="node3:1" type="static" programID="a" offset="0">
        <phase duration="18" state="GGGgrrrrGGGgrrrr"/>
        <phase duration="3" state="yyygrrrryyygrrrr"/>
        <phase duration="4" state="rrrGrrrrrrrGrrrr"/>
        <phase duration="3" state="rrryrrrrrrryrrrr"/>
        <phase duration="28" state="rrrrGGGgrrrrGGGg"/>
        <phase duration="3" state="rrrryyygrrrryyyg"/>
        <phase duration="6" state="rrrrrrrGrrrrrrrG"/>
        <phase duration="3" state="rrrrrrryrrrrrrry"/>
    </tlLogic>
    <tlLogic id="node3:2" type="static" programID="a" offset="0">
        <phase duration="20" state="GGGgrrrrGGGgrrrr"/>
        <phase duration="3" state="yyygrrrryyygrrrr"/>
        <phase duration="4" state="rrrGrrrrrrrGrrrr"/>
        <phase duration="3" state="rrryrrrrrrryrrrr"/>
        <phase duration="29" state="rrrrGGGgrrrrGGGg"/>
        <phase duration="3" state="rrrryyygrrrryyyg"/>
        <phase duration="7" state="rrrrrrrGrrrrrrrG"/>
        <phase duration="3" state="rrrrrrryrrrrrrry"/>
    </tlLogic>
    <tlLogic id="node3:3" type="static" programID="a" offset="0">
        <phase duration="22" state="GGGgrrrrGGGgrrrr"/>
        <phase duration="3" state="yyygrrrryyygrrrr"/>
        <phase duration="6" state="rrrGrrrrrrrGrrrr"/>
        <phase duration="3" state="rrryrrrrrrryrrrr"/>
        <phase duration="30" state="rrrrGGGgrrrrGGGg"/>
        <phase duration="3" state="rrrryyygrrrryyyg"/>
        <phase duration="8" state="rrrrrrrGrrrrrrrG"/>
        <phase duration="3" state="rrrrrrryrrrrrrry"/>
    </tlLogic>
</additional>
