<?xml version="1.0" encoding="UTF-8"?>
<additional>
    <tlLogic id="node0:0" type="static" programID="e" offset="0">
        <phase duration="5000" minDur="5" maxDur="5000" state="GGGgrrrrGGGgrrrr"/>
        <phase duration="3" minDur="3" maxDur="3" state="yyygrrrryyygrrrr"/>
        <phase duration="5000" minDur="5" maxDur="5000" state="rrrGrrrrrrrGrrrr"/>
        <phase duration="3" minDur="3" maxDur="3" state="rrryrrrrrrryrrrr"/>
        <phase duration="5000" minDur="5" maxDur="5000" state="rrrrGGGgrrrrGGGg"/>
        <phase duration="3" minDur="3" maxDur="3" state="rrrryyygrrrryyyg"/>
        <phase duration="5000" minDur="5" maxDur="5000" state="rrrrrrrGrrrrrrrG"/>
        <phase duration="3" minDur="3" maxDur="3" state="rrrrrrryrrrrrrry"/>
    </tlLogic>
    <tlLogic id="node0:1" type="static" programID="e" offset="0">
        <phase duration="5000" minDur="5" maxDur="5000" state="GGGgrrrrGGGgrrrr"/>
        <phase duration="3" minDur="3" maxDur="3" state="yyygrrrryyygrrrr"/>
        <phase duration="5000" minDur="5" maxDur="5000" state="rrrGrrrrrrrGrrrr"/>
        <phase duration="3" minDur="3" maxDur="3" state="rrryrrrrrrryrrrr"/>
        <phase duration="5000" minDur="5" maxDur="5000" state="rrrrGGGgrrrrGGGg"/>
        <phase duration="3" minDur="3" maxDur="3" state="rrrryyygrrrryyyg"/>
        <phase duration="5000" minDur="5" maxDur="5000" state="rrrrrrrGrrrrrrrG"/>
        <phase duration="3" minDur="3" maxDur="3" state="rrrrrrryrrrrrrry"/>
    </tlLogic>
    <tlLogic id="node0:2" type="static" programID="e" offset="0">
        <phase duration="5000" minDur="5" maxDur="5000" state="GGGgrrrrGGGgrrrr"/>
        <phase duration="3" minDur="3" maxDur="3" state="yyygrrrryyygrrrr"/>
        <phase duration="5000" minDur="5" maxDur="5000" state="rrrGrrrrrrrGrrrr"/>
        <phase duration="3" minDur="3" maxDur="3" state="rrryrrrrrrryrrrr"/>
        <phase duration="5000" minDur="5" maxDur="5000" state="rrrrGGGgrrrrGGGg"/>
        <phase duration="3" minDur="3" maxDur="3" state="rrrryyygrrrryyyg"/>
        <phase duration="5000" minDur="5" maxDur="5000" state="rrrrrrrGrrrrrrrG"/>
        <phase duration="3" minDur="3" maxDur="3" state="rrrrrrryrrrrrrry"/>
    </tlLogic>
    <tlLogic id="node0:3" type="static" programID="e" offset="0">
        <phase duration="5000" minDur="5" maxDur="5000" state="GGGgrrrrGGGgrrrr"/>
        <phase duration="3" minDur="3" maxDur="3" state="yyygrrrryyygrrrr"/>
        <phase duration="5000" minDur="5" maxDur="5000" state="rrrGrrrrrrrGrrrr"/>
        <phase duration="3" minDur="3" maxDur="3" state="rrryrrrrrrryrrrr"/>
        <phase duration="5000" minDur="5" maxDur="5000" state="rrrrGGGgrrrrGGGg"/>
        <phase duration="3" minDur="3" maxDur="3" state="rrrryyygrrrryyyg"/>
        <phase duration="5000" minDur="5" maxDur="5000" state="rrrrrrrGrrrrrrrG"/>
        <phase duration="3" minDur="3" maxDur="3" state="rrrrrrryrrrrrrry"/>
    </tlLogic>
    <tlLogic id="node1:0" type="static" programID="e" offset="0">
        <phase duration="5000" minDur="5" maxDur="5000" state="GGGgrrrrGGGgrrrr"/>
        <phase duration="3" minDur="3" maxDur="3" state="yyygrrrryyygrrrr"/>
        <phase duration="5000" minDur="5" maxDur="5000" state="rrrGrrrrrrrGrrrr"/>
        <phase duration="3" minDur="3" maxDur="3" state="rrryrrrrrrryrrrr"/>
        <phase duration="5000" minDur="5" maxDur="5000" state="rrrrGGGgrrrrGGGg"/>
        <phase duration="3" minDur="3" maxDur="3" state="rrrryyygrrrryyyg"/>
        <phase duration="5000" minDur="5" maxDur="5000" state="rrrrrrrGrrrrrrrG"/>
        <phase duration="3" minDur="3" maxDur="3" state="rrrrrrryrrrrrrry"/>
    </tlLogic>
    <tlLogic id="node1:1" type="static" programID="e" offset="0">
        <phase duration="5000" minDur="5" maxDur="5000" state="GGGgrrrrGGGgrrrr"/>
        <phase duration="3" minDur="3" maxDur="3" state="yyygrrrryyygrrrr"/>
        <phase duration="5000" minDur="5" maxDur="5000" state="rrrGrrrrrrrGrrrr"/>
        <phase duration="3" minDur="3" maxDur="3" state="rrryrrrrrrryrrrr"/>
        <phase duration="5000" minDur="5" maxDur="5000" state="rrrrGGGgrrrrGGGg"/>
        <phase duration="3" minDur="3" maxDur="3" state="rrrryyygrrrryyyg"/>
        <phase duration="5000" minDur="5" maxDur="5000" state="rrrrrrrGrrrrrrrG"/>
        <phase duration="3" minDur="3" maxDur="3" state="rrrrrrryrrrrrrry"/>
    </tlLogic>
    <tlLogic id="node1:2" type="static" programID="e" offset="0">
        <phase duration="5000" minDur="5" maxDur="5000" state="GGGgrrrrGGGgrrrr"/>
        <phase duration="3" minDur="3" maxDur="3" state="yyygrrrryyygrrrr"/>
        <phase duration="5000" minDur="5" maxDur="5000" state="rrrGrrrrrrrGrrrr"/>
        <phase duration="3" minDur="3" maxDur="3" state="rrryrrrrrrryrrrr"/>
        <phase duration="5000" minDur="5" maxDur="5000" state="rrrrGGGgrrrrGGGg"/>
        <phase duration="3" minDur="3" maxDur="3" state="rrrryyygrrrryyyg"/>
        <phase duration="5000" minDur="5" maxDur="5000" state="rrrrrrrGrrrrrrrG"/>
        <phase duration="3" minDur="3" maxDur="3" state="rrrrrrryrrrrrrry"/>
    </tlLogic>
    <tlLogic id="node1:3" type="static" programID="e" offset="0">
        <phase duration="5000" minDur="5" maxDur="5000" state="GGGgrrrrGGGgrrrr"/>
        <phase duration="3" minDur="3" maxDur="3" state="yyygrrrryyygrrrr"/>
        <phase duration="5000" minDur="5" maxDur="5000" state="rrrGrrrrrrrGrrrr"/>
        <phase duration="3" minDur="3" maxDur="3" state="rrryrrrrrrryrrrr"/>
        <phase duration="5000" minDur="5" maxDur="5000" state="rrrrGGGgrrrrGGGg"/>
        <phase duration="3" minDur="3" maxDur="3" state="rrrryyygrrrryyyg"/>
        <phase duration="5000" minDur="5" maxDur="5000" state="rrrrrrrGrrrrrrrG"/>
        <phase duration="3" minDur="3" maxDur="3" state="rrrrrrryrrrrrrry"/>
    </tlLogic>
    <tlLogic id="node2:0" type="static" programID="e" offset="0">
        <phase duration="5000" minDur="5" maxDur="5000" state="GGGgrrrrGGGgrrrr"/>
        <phase duration="3" minDur="3" maxDur="3" state="yyygrrrryyygrrrr"/>
        <phase duration="5000" minDur="5" maxDur="5000" state="rrrGrrrrrrrGrrrr"/>
        <phase duration="3" minDur="3" maxDur="3" state="rrryrrrrrrryrrrr"/>
        <phase duration="5000" minDur="5" maxDur="5000" state="rrrrGGGgrrrrGGGg"/>
        <phase duration="3" minDur="3" maxDur="3" state="rrrryyygrrrryyyg"/>
        <phase duration="5000" minDur="5" maxDur="5000" state="rrrrrrrGrrrrrrrG"/>
        <phase duration="3" minDur="3" maxDur="3" state="rrrrrrryrrrrrrry"/>
    </tlLogic>
    <tlLogic id="node2:1" type="static" programID="e" offset="0">
        <phase duration="5000" minDur="5" maxDur="5000" state="GGGgrrrrGGGgrrrr"/>
        <phase duration="3" minDur="3" maxDur="3" state="yyygrrrryyygrrrr"/>
        <phase duration="5000" minDur="5" maxDur="5000" state="rrrGrrrrrrrGrrrr"/>
        <phase duration="3" minDur="3" maxDur="3" state="rrryrrrrrrryrrrr"/>
        <phase duration="5000" minDur="5" maxDur="5000" state="rrrrGGGgrrrrGGGg"/>
        <phase duration="3" minDur="3" maxDur="3" state="rrrryyygrrrryyyg"/>
        <phase duration="5000" minDur="5" maxDur="5000" state="rrrrrrrGrrrrrrrG"/>
        <phase duration="3" minDur="3" maxDur="3" state="rrrrrrryrrrrrrry"/>
    </tlLogic>
    <tlLogic id="node2:2" type="static" programID="e" offset="0">
        <phase duration="5000" minDur="5" maxDur="5000" state="GGGgrrrrGGGgrrrr"/>
        <phase duration="3" minDur="3" maxDur="3" state="yyygrrrryyygrrrr"/>
        <phase duration="5000" minDur="5" maxDur="5000" state="rrrGrrrrrrrGrrrr"/>
        <phase duration="3" minDur="3" maxDur="3" state="rrryrrrrrrryrrrr"/>
        <phase duration="5000" minDur="5" maxDur="5000" state="rrrrGGGgrrrrGGGg"/>
        <phase duration="3" minDur="3" maxDur="3" state="rrrryyygrrrryyyg"/>
        <phase duration="5000" minDur="5" maxDur="5000" state="rrrrrrrGrrrrrrrG"/>
        <phase duration="3" minDur="3" maxDur="3" state="rrrrrrryrrrrrrry"/>
    </tlLogic>
    <tlLogic id="node2:3" type="static" programID="e" offset="0">
        <phase duration="5000" minDur="5" maxDur="5000" state="GGGgrrrrGGGgrrrr"/>
        <phase duration="3" minDur="3" maxDur="3" state="yyygrrrryyygrrrr"/>
        <phase duration="5000" minDur="5" maxDur="5000" state="rrrGrrrrrrrGrrrr"/>
        <phase duration="3" minDur="3" maxDur="3" state="rrryrrrrrrryrrrr"/>
        <phase duration="5000" minDur="5" maxDur="5000" state="rrrrGGGgrrrrGGGg"/>
        <phase duration="3" minDur="3" maxDur="3" state="rrrryyygrrrryyyg"/>
        <phase duration="5000" minDur="5" maxDur="5000" state="rrrrrrrGrrrrrrrG"/>
        <phase duration="3" minDur="3" maxDur="3" state="rrrrrrryrrrrrrry"/>
    </tlLogic>
    <tlLogic id="node3:0" type="static" programID="e" offset="0">
        <phase duration="5000" minDur="5" maxDur="5000" state="GGGgrrrrGGGgrrrr"/>
        <phase duration="3" minDur="3" maxDur="3" state="yyygrrrryyygrrrr"/>
        <phase duration="5000" minDur="5" maxDur="5000" state="rrrGrrrrrrrGrrrr"/>
        <phase duration="3" minDur="3" maxDur="3" state="rrryrrrrrrryrrrr"/>
        <phase duration="5000" minDur="5" maxDur="5000" state="rrrrGGGgrrrrGGGg"/>
        <phase duration="3" minDur="3" maxDur="3" state="rrrryyygrrrryyyg"/>
        <phase duration="5000" minDur="5" maxDur="5000" state="rrrrrrrGrrrrrrrG"/>
        <phase duration="3" minDur="3" maxDur="3" state="rrrrrrryrrrrrrry"/>
    </tlLogic>
    <tlLogic id="node3:1" type="static" programID="e" offset="0">
        <phase duration="5000" minDur="5" maxDur="5000" state="GGGgrrrrGGGgrrrr"/>
        <phase duration="3" minDur="3" maxDur="3" state="yyygrrrryyygrrrr"/>
        <phase duration="5000" minDur="5" maxDur="5000" state="rrrGrrrrrrrGrrrr"/>
        <phase duration="3" minDur="3" maxDur="3" state="rrryrrrrrrryrrrr"/>
        <phase duration="5000" minDur="5" maxDur="5000" state="rrrrGGGgrrrrGGGg"/>
        <phase duration="3" minDur="3" maxDur="3" state="rrrryyygrrrryyyg"/>
        <phase duration="5000" minDur="5" maxDur="5000" state="rrrrrrrGrrrrrrrG"/>
        <phase duration="3" minDur="3" maxDur="3" state="rrrrrrryrrrrrrry"/>
    </tlLogic>
    <tlLogic id="node3:2" type="static" programID="e" offset="0">
        <phase duration="5000" minDur="5" maxDur="5000" state="GGGgrrrrGGGgrrrr"/>
        <phase duration="3" minDur="3" maxDur="3" state="yyygrrrryyygrrrr"/>
        <phase duration="5000" minDur="5" maxDur="5000" state="rrrGrrrrrrrGrrrr"/>
        <phase duration="3" minDur="3" maxDur="3" state="rrryrrrrrrryrrrr"/>
        <phase duration="5000" minDur="5" maxDur="5000" state="rrrrGGGgrrrrGGGg"/>
        <phase duration="3" minDur="3" maxDur="3" state="rrrryyygrrrryyyg"/>
        <phase duration="5000" minDur="5" maxDur="5000" state="rrrrrrrGrrrrrrrG"/>
        <phase duration="3" minDur="3" maxDur="3" state="rrrrrrryrrrrrrry"/>
    </tlLogic>
    <tlLogic id="node3:3" type="static" programID="e" offset="0">
        <phase duration="5000" minDur="5" maxDur="5000" state="GGGgrrrrGGGgrrrr"/>
        <phase duration="3" minDur="3" maxDur="3" state="yyygrrrryyygrrrr"/>
        <phase duration="5000" minDur="5" maxDur="5000" state="rrrGrrrrrrrGrrrr"/>
        <phase duration="3" minDur="3" maxDur="3" state="rrryrrrrrrryrrrr"/>
        <phase duration="5000" minDur="5" maxDur="5000" state="rrrrGGGgrrrrGGGg"/>
        <phase duration="3" minDur="3" maxDur="3" state="rrrryyygrrrryyyg"/>
        <phase duration="5000" minDur="5" maxDur="5000" state="rrrrrrrGrrrrrrrG"/>
        <phase duration="3" minDur="3" maxDur="3" state="rrrrrrryrrrrrrry"/>
    </tlLogic>
</additional>
