<vehicles>
    <flow id="E1" from="edge-1:0/0:0" number="1200"/>
    <flow id="E2" from="edge-1:1/0:1" number="1200"/>
    <flow id="E3" from="edge-1:2/0:2" number="1200"/>
    <flow id="E4" from="edge-1:3/0:3" number="1200"/>

    <flow id="W1" from="edge4:0/3:0" number="1200"/>
    <flow id="W2" from="edge4:1/3:1" number="1200"/>
    <flow id="W3" from="edge4:2/3:2" number="1200"/>
    <flow id="W4" from="edge4:3/3:3" number="1200"/>

    <flow id="S1" from="edge0:-1/0:0" number="600"/>
    <flow id="S2" from="edge1:-1/1:0" number="600"/>
    <flow id="S3" from="edge2:-1/2:0" number="600"/>
    <flow id="S4" from="edge3:-1/3:0" number="600"/>

    <flow id="N1" from="edge0:4/0:3" number="600"/>
    <flow id="N2" from="edge1:4/1:3" number="600"/>
    <flow id="N3" from="edge2:4/2:3" number="600"/>
    <flow id="N4" from="edge3:4/3:3" number="600"/>
</vehicles>