<additional xmlns:xsi="http://www.w3.org/2001/XMLSchema-instance" xsi:noNamespaceSchemaLocation="http://sumo.dlr.de/xsd/additional_file.xsd">
    <laneAreaDetector file="e2output.xml" freq="10000" friendlyPos="x" id="e2det_edge-1:0/0:0.-45_0" lane="edge-1:0/0:0.-45_0" length="32.05" pos="1.4155343563970746e-15"/>
    <laneAreaDetector file="e2output.xml" freq="10000" friendlyPos="x" id="e2det_edge-1:0/0:0.-45_1" lane="edge-1:0/0:0.-45_1" length="32.05" pos="1.4155343563970746e-15"/>
    <laneAreaDetector file="e2output.xml" freq="10000" friendlyPos="x" id="e2det_edge-1:0/0:0.-45_2" lane="edge-1:0/0:0.-45_2" length="32.05" pos="1.4155343563970746e-15"/>
    <laneAreaDetector file="e2output.xml" freq="10000" friendlyPos="x" id="e2det_edge0:-1/0:0.-45_0" lane="edge0:-1/0:0.-45_0" length="32.05" pos="1.4155343563970746e-15"/>
    <laneAreaDetector file="e2output.xml" freq="10000" friendlyPos="x" id="e2det_edge0:-1/0:0.-45_1" lane="edge0:-1/0:0.-45_1" length="32.05" pos="1.4155343563970746e-15"/>
    <laneAreaDetector file="e2output.xml" freq="10000" friendlyPos="x" id="e2det_edge0:-1/0:0.-45_2" lane="edge0:-1/0:0.-45_2" length="32.05" pos="1.4155343563970746e-15"/>
    <laneAreaDetector file="e2output.xml" freq="10000" friendlyPos="x" id="e2det_edge0:1/0:0.-45_0" lane="edge0:1/0:0.-45_0" length="32.05" pos="1.4155343563970746e-15"/>
    <laneAreaDetector file="e2output.xml" freq="10000" friendlyPos="x" id="e2det_edge0:1/0:0.-45_1" lane="edge0:1/0:0.-45_1" length="32.05" pos="1.4155343563970746e-15"/>
    <laneAreaDetector file="e2output.xml" freq="10000" friendlyPos="x" id="e2det_edge0:1/0:0.-45_2" lane="edge0:1/0:0.-45_2" length="32.05" pos="1.4155343563970746e-15"/>
    <laneAreaDetector file="e2output.xml" freq="10000" friendlyPos="x" id="e2det_edge1:0/0:0.-45_0" lane="edge1:0/0:0.-45_0" length="32.05" pos="1.4155343563970746e-15"/>
    <laneAreaDetector file="e2output.xml" freq="10000" friendlyPos="x" id="e2det_edge1:0/0:0.-45_1" lane="edge1:0/0:0.-45_1" length="32.05" pos="1.4155343563970746e-15"/>
    <laneAreaDetector file="e2output.xml" freq="10000" friendlyPos="x" id="e2det_edge1:0/0:0.-45_2" lane="edge1:0/0:0.-45_2" length="32.05" pos="1.4155343563970746e-15"/>
    <laneAreaDetector file="e2output.xml" freq="10000" friendlyPos="x" id="e2det_edge-1:1/0:1.-45_0" lane="edge-1:1/0:1.-45_0" length="32.05" pos="1.4155343563970746e-15"/>
    <laneAreaDetector file="e2output.xml" freq="10000" friendlyPos="x" id="e2det_edge-1:1/0:1.-45_1" lane="edge-1:1/0:1.-45_1" length="32.05" pos="1.4155343563970746e-15"/>
    <laneAreaDetector file="e2output.xml" freq="10000" friendlyPos="x" id="e2det_edge-1:1/0:1.-45_2" lane="edge-1:1/0:1.-45_2" length="32.05" pos="1.4155343563970746e-15"/>
    <laneAreaDetector file="e2output.xml" freq="10000" friendlyPos="x" id="e2det_edge0:0/0:1.-45_0" lane="edge0:0/0:1.-45_0" length="32.05" pos="1.4155343563970746e-15"/>
    <laneAreaDetector file="e2output.xml" freq="10000" friendlyPos="x" id="e2det_edge0:0/0:1.-45_1" lane="edge0:0/0:1.-45_1" length="32.05" pos="1.4155343563970746e-15"/>
    <laneAreaDetector file="e2output.xml" freq="10000" friendlyPos="x" id="e2det_edge0:0/0:1.-45_2" lane="edge0:0/0:1.-45_2" length="32.05" pos="1.4155343563970746e-15"/>
    <laneAreaDetector file="e2output.xml" freq="10000" friendlyPos="x" id="e2det_edge0:2/0:1.-45_0" lane="edge0:2/0:1.-45_0" length="32.05" pos="1.4155343563970746e-15"/>
    <laneAreaDetector file="e2output.xml" freq="10000" friendlyPos="x" id="e2det_edge0:2/0:1.-45_1" lane="edge0:2/0:1.-45_1" length="32.05" pos="1.4155343563970746e-15"/>
    <laneAreaDetector file="e2output.xml" freq="10000" friendlyPos="x" id="e2det_edge0:2/0:1.-45_2" lane="edge0:2/0:1.-45_2" length="32.05" pos="1.4155343563970746e-15"/>
    <laneAreaDetector file="e2output.xml" freq="10000" friendlyPos="x" id="e2det_edge1:1/0:1.-45_0" lane="edge1:1/0:1.-45_0" length="32.05" pos="1.4155343563970746e-15"/>
    <laneAreaDetector file="e2output.xml" freq="10000" friendlyPos="x" id="e2det_edge1:1/0:1.-45_1" lane="edge1:1/0:1.-45_1" length="32.05" pos="1.4155343563970746e-15"/>
    <laneAreaDetector file="e2output.xml" freq="10000" friendlyPos="x" id="e2det_edge1:1/0:1.-45_2" lane="edge1:1/0:1.-45_2" length="32.05" pos="1.4155343563970746e-15"/>
    <laneAreaDetector file="e2output.xml" freq="10000" friendlyPos="x" id="e2det_edge-1:2/0:2.-45_0" lane="edge-1:2/0:2.-45_0" length="32.05" pos="1.4155343563970746e-15"/>
    <laneAreaDetector file="e2output.xml" freq="10000" friendlyPos="x" id="e2det_edge-1:2/0:2.-45_1" lane="edge-1:2/0:2.-45_1" length="32.05" pos="1.4155343563970746e-15"/>
    <laneAreaDetector file="e2output.xml" freq="10000" friendlyPos="x" id="e2det_edge-1:2/0:2.-45_2" lane="edge-1:2/0:2.-45_2" length="32.05" pos="1.4155343563970746e-15"/>
    <laneAreaDetector file="e2output.xml" freq="10000" friendlyPos="x" id="e2det_edge0:1/0:2.-45_0" lane="edge0:1/0:2.-45_0" length="32.05" pos="1.4155343563970746e-15"/>
    <laneAreaDetector file="e2output.xml" freq="10000" friendlyPos="x" id="e2det_edge0:1/0:2.-45_1" lane="edge0:1/0:2.-45_1" length="32.05" pos="1.4155343563970746e-15"/>
    <laneAreaDetector file="e2output.xml" freq="10000" friendlyPos="x" id="e2det_edge0:1/0:2.-45_2" lane="edge0:1/0:2.-45_2" length="32.05" pos="1.4155343563970746e-15"/>
    <laneAreaDetector file="e2output.xml" freq="10000" friendlyPos="x" id="e2det_edge0:3/0:2.-45_0" lane="edge0:3/0:2.-45_0" length="32.05" pos="1.4155343563970746e-15"/>
    <laneAreaDetector file="e2output.xml" freq="10000" friendlyPos="x" id="e2det_edge0:3/0:2.-45_1" lane="edge0:3/0:2.-45_1" length="32.05" pos="1.4155343563970746e-15"/>
    <laneAreaDetector file="e2output.xml" freq="10000" friendlyPos="x" id="e2det_edge0:3/0:2.-45_2" lane="edge0:3/0:2.-45_2" length="32.05" pos="1.4155343563970746e-15"/>
    <laneAreaDetector file="e2output.xml" freq="10000" friendlyPos="x" id="e2det_edge1:2/0:2.-45_0" lane="edge1:2/0:2.-45_0" length="32.05" pos="1.4155343563970746e-15"/>
    <laneAreaDetector file="e2output.xml" freq="10000" friendlyPos="x" id="e2det_edge1:2/0:2.-45_1" lane="edge1:2/0:2.-45_1" length="32.05" pos="1.4155343563970746e-15"/>
    <laneAreaDetector file="e2output.xml" freq="10000" friendlyPos="x" id="e2det_edge1:2/0:2.-45_2" lane="edge1:2/0:2.-45_2" length="32.05" pos="1.4155343563970746e-15"/>
    <laneAreaDetector file="e2output.xml" freq="10000" friendlyPos="x" id="e2det_edge-1:3/0:3.-45_0" lane="edge-1:3/0:3.-45_0" length="32.05" pos="1.4155343563970746e-15"/>
    <laneAreaDetector file="e2output.xml" freq="10000" friendlyPos="x" id="e2det_edge-1:3/0:3.-45_1" lane="edge-1:3/0:3.-45_1" length="32.05" pos="1.4155343563970746e-15"/>
    <laneAreaDetector file="e2output.xml" freq="10000" friendlyPos="x" id="e2det_edge-1:3/0:3.-45_2" lane="edge-1:3/0:3.-45_2" length="32.05" pos="1.4155343563970746e-15"/>
    <laneAreaDetector file="e2output.xml" freq="10000" friendlyPos="x" id="e2det_edge0:2/0:3.-45_0" lane="edge0:2/0:3.-45_0" length="32.05" pos="1.4155343563970746e-15"/>
    <laneAreaDetector file="e2output.xml" freq="10000" friendlyPos="x" id="e2det_edge0:2/0:3.-45_1" lane="edge0:2/0:3.-45_1" length="32.05" pos="1.4155343563970746e-15"/>
    <laneAreaDetector file="e2output.xml" freq="10000" friendlyPos="x" id="e2det_edge0:2/0:3.-45_2" lane="edge0:2/0:3.-45_2" length="32.05" pos="1.4155343563970746e-15"/>
    <laneAreaDetector file="e2output.xml" freq="10000" friendlyPos="x" id="e2det_edge0:4/0:3.-45_0" lane="edge0:4/0:3.-45_0" length="32.05" pos="1.4155343563970746e-15"/>
    <laneAreaDetector file="e2output.xml" freq="10000" friendlyPos="x" id="e2det_edge0:4/0:3.-45_1" lane="edge0:4/0:3.-45_1" length="32.05" pos="1.4155343563970746e-15"/>
    <laneAreaDetector file="e2output.xml" freq="10000" friendlyPos="x" id="e2det_edge0:4/0:3.-45_2" lane="edge0:4/0:3.-45_2" length="32.05" pos="1.4155343563970746e-15"/>
    <laneAreaDetector file="e2output.xml" freq="10000" friendlyPos="x" id="e2det_edge1:3/0:3.-45_0" lane="edge1:3/0:3.-45_0" length="32.05" pos="1.4155343563970746e-15"/>
    <laneAreaDetector file="e2output.xml" freq="10000" friendlyPos="x" id="e2det_edge1:3/0:3.-45_1" lane="edge1:3/0:3.-45_1" length="32.05" pos="1.4155343563970746e-15"/>
    <laneAreaDetector file="e2output.xml" freq="10000" friendlyPos="x" id="e2det_edge1:3/0:3.-45_2" lane="edge1:3/0:3.-45_2" length="32.05" pos="1.4155343563970746e-15"/>
    <laneAreaDetector file="e2output.xml" freq="10000" friendlyPos="x" id="e2det_edge0:0/-1:0.-45_2" lane="edge0:0/-1:0.-45_2" length="43.4" pos="1.4155343563970746e-15"/>
    <laneAreaDetector file="e2output.xml" freq="10000" friendlyPos="x" id="e2det_edge0:0/0:-1.-45_2" lane="edge0:0/0:-1.-45_2" length="43.4" pos="1.4155343563970746e-15"/>
    <laneAreaDetector file="e2output.xml" freq="10000" friendlyPos="x" id="e2det_edge0:0/1:0.-45_0" lane="edge0:0/1:0.-45_0" length="32.05" pos="1.4155343563970746e-15"/>
    <laneAreaDetector file="e2output.xml" freq="10000" friendlyPos="x" id="e2det_edge0:0/1:0.-45_1" lane="edge0:0/1:0.-45_1" length="32.05" pos="1.4155343563970746e-15"/>
    <laneAreaDetector file="e2output.xml" freq="10000" friendlyPos="x" id="e2det_edge0:0/1:0.-45_2" lane="edge0:0/1:0.-45_2" length="32.05" pos="1.4155343563970746e-15"/>
    <laneAreaDetector file="e2output.xml" freq="10000" friendlyPos="x" id="e2det_edge1:-1/1:0.-45_0" lane="edge1:-1/1:0.-45_0" length="32.05" pos="1.4155343563970746e-15"/>
    <laneAreaDetector file="e2output.xml" freq="10000" friendlyPos="x" id="e2det_edge1:-1/1:0.-45_1" lane="edge1:-1/1:0.-45_1" length="32.05" pos="1.4155343563970746e-15"/>
    <laneAreaDetector file="e2output.xml" freq="10000" friendlyPos="x" id="e2det_edge1:-1/1:0.-45_2" lane="edge1:-1/1:0.-45_2" length="32.05" pos="1.4155343563970746e-15"/>
    <laneAreaDetector file="e2output.xml" freq="10000" friendlyPos="x" id="e2det_edge1:1/1:0.-45_0" lane="edge1:1/1:0.-45_0" length="32.05" pos="1.4155343563970746e-15"/>
    <laneAreaDetector file="e2output.xml" freq="10000" friendlyPos="x" id="e2det_edge1:1/1:0.-45_1" lane="edge1:1/1:0.-45_1" length="32.05" pos="1.4155343563970746e-15"/>
    <laneAreaDetector file="e2output.xml" freq="10000" friendlyPos="x" id="e2det_edge1:1/1:0.-45_2" lane="edge1:1/1:0.-45_2" length="32.05" pos="1.4155343563970746e-15"/>
    <laneAreaDetector file="e2output.xml" freq="10000" friendlyPos="x" id="e2det_edge2:0/1:0.-45_0" lane="edge2:0/1:0.-45_0" length="32.05" pos="1.4155343563970746e-15"/>
    <laneAreaDetector file="e2output.xml" freq="10000" friendlyPos="x" id="e2det_edge2:0/1:0.-45_1" lane="edge2:0/1:0.-45_1" length="32.05" pos="1.4155343563970746e-15"/>
    <laneAreaDetector file="e2output.xml" freq="10000" friendlyPos="x" id="e2det_edge2:0/1:0.-45_2" lane="edge2:0/1:0.-45_2" length="32.05" pos="1.4155343563970746e-15"/>
    <laneAreaDetector file="e2output.xml" freq="10000" friendlyPos="x" id="e2det_edge0:1/-1:1.-45_2" lane="edge0:1/-1:1.-45_2" length="43.4" pos="1.4155343563970746e-15"/>
    <laneAreaDetector file="e2output.xml" freq="10000" friendlyPos="x" id="e2det_edge0:1/1:1.-45_0" lane="edge0:1/1:1.-45_0" length="32.05" pos="1.4155343563970746e-15"/>
    <laneAreaDetector file="e2output.xml" freq="10000" friendlyPos="x" id="e2det_edge0:1/1:1.-45_1" lane="edge0:1/1:1.-45_1" length="32.05" pos="1.4155343563970746e-15"/>
    <laneAreaDetector file="e2output.xml" freq="10000" friendlyPos="x" id="e2det_edge0:1/1:1.-45_2" lane="edge0:1/1:1.-45_2" length="32.05" pos="1.4155343563970746e-15"/>
    <laneAreaDetector file="e2output.xml" freq="10000" friendlyPos="x" id="e2det_edge1:0/1:1.-45_0" lane="edge1:0/1:1.-45_0" length="32.05" pos="1.4155343563970746e-15"/>
    <laneAreaDetector file="e2output.xml" freq="10000" friendlyPos="x" id="e2det_edge1:0/1:1.-45_1" lane="edge1:0/1:1.-45_1" length="32.05" pos="1.4155343563970746e-15"/>
    <laneAreaDetector file="e2output.xml" freq="10000" friendlyPos="x" id="e2det_edge1:0/1:1.-45_2" lane="edge1:0/1:1.-45_2" length="32.05" pos="1.4155343563970746e-15"/>
    <laneAreaDetector file="e2output.xml" freq="10000" friendlyPos="x" id="e2det_edge1:2/1:1.-45_0" lane="edge1:2/1:1.-45_0" length="32.05" pos="1.4155343563970746e-15"/>
    <laneAreaDetector file="e2output.xml" freq="10000" friendlyPos="x" id="e2det_edge1:2/1:1.-45_1" lane="edge1:2/1:1.-45_1" length="32.05" pos="1.4155343563970746e-15"/>
    <laneAreaDetector file="e2output.xml" freq="10000" friendlyPos="x" id="e2det_edge1:2/1:1.-45_2" lane="edge1:2/1:1.-45_2" length="32.05" pos="1.4155343563970746e-15"/>
    <laneAreaDetector file="e2output.xml" freq="10000" friendlyPos="x" id="e2det_edge2:1/1:1.-45_0" lane="edge2:1/1:1.-45_0" length="32.05" pos="1.4155343563970746e-15"/>
    <laneAreaDetector file="e2output.xml" freq="10000" friendlyPos="x" id="e2det_edge2:1/1:1.-45_1" lane="edge2:1/1:1.-45_1" length="32.05" pos="1.4155343563970746e-15"/>
    <laneAreaDetector file="e2output.xml" freq="10000" friendlyPos="x" id="e2det_edge2:1/1:1.-45_2" lane="edge2:1/1:1.-45_2" length="32.05" pos="1.4155343563970746e-15"/>
    <laneAreaDetector file="e2output.xml" freq="10000" friendlyPos="x" id="e2det_edge0:2/-1:2.-45_2" lane="edge0:2/-1:2.-45_2" length="43.4" pos="1.4155343563970746e-15"/>
    <laneAreaDetector file="e2output.xml" freq="10000" friendlyPos="x" id="e2det_edge0:2/1:2.-45_0" lane="edge0:2/1:2.-45_0" length="32.05" pos="1.4155343563970746e-15"/>
    <laneAreaDetector file="e2output.xml" freq="10000" friendlyPos="x" id="e2det_edge0:2/1:2.-45_1" lane="edge0:2/1:2.-45_1" length="32.05" pos="1.4155343563970746e-15"/>
    <laneAreaDetector file="e2output.xml" freq="10000" friendlyPos="x" id="e2det_edge0:2/1:2.-45_2" lane="edge0:2/1:2.-45_2" length="32.05" pos="1.4155343563970746e-15"/>
    <laneAreaDetector file="e2output.xml" freq="10000" friendlyPos="x" id="e2det_edge1:1/1:2.-45_0" lane="edge1:1/1:2.-45_0" length="32.05" pos="1.4155343563970746e-15"/>
    <laneAreaDetector file="e2output.xml" freq="10000" friendlyPos="x" id="e2det_edge1:1/1:2.-45_1" lane="edge1:1/1:2.-45_1" length="32.05" pos="1.4155343563970746e-15"/>
    <laneAreaDetector file="e2output.xml" freq="10000" friendlyPos="x" id="e2det_edge1:1/1:2.-45_2" lane="edge1:1/1:2.-45_2" length="32.05" pos="1.4155343563970746e-15"/>
    <laneAreaDetector file="e2output.xml" freq="10000" friendlyPos="x" id="e2det_edge1:3/1:2.-45_0" lane="edge1:3/1:2.-45_0" length="32.05" pos="1.4155343563970746e-15"/>
    <laneAreaDetector file="e2output.xml" freq="10000" friendlyPos="x" id="e2det_edge1:3/1:2.-45_1" lane="edge1:3/1:2.-45_1" length="32.05" pos="1.4155343563970746e-15"/>
    <laneAreaDetector file="e2output.xml" freq="10000" friendlyPos="x" id="e2det_edge1:3/1:2.-45_2" lane="edge1:3/1:2.-45_2" length="32.05" pos="1.4155343563970746e-15"/>
    <laneAreaDetector file="e2output.xml" freq="10000" friendlyPos="x" id="e2det_edge2:2/1:2.-45_0" lane="edge2:2/1:2.-45_0" length="32.05" pos="1.4155343563970746e-15"/>
    <laneAreaDetector file="e2output.xml" freq="10000" friendlyPos="x" id="e2det_edge2:2/1:2.-45_1" lane="edge2:2/1:2.-45_1" length="32.05" pos="1.4155343563970746e-15"/>
    <laneAreaDetector file="e2output.xml" freq="10000" friendlyPos="x" id="e2det_edge2:2/1:2.-45_2" lane="edge2:2/1:2.-45_2" length="32.05" pos="1.4155343563970746e-15"/>
    <laneAreaDetector file="e2output.xml" freq="10000" friendlyPos="x" id="e2det_edge0:3/-1:3.-45_2" lane="edge0:3/-1:3.-45_2" length="43.4" pos="1.4155343563970746e-15"/>
    <laneAreaDetector file="e2output.xml" freq="10000" friendlyPos="x" id="e2det_edge0:3/0:4.-45_2" lane="edge0:3/0:4.-45_2" length="43.4" pos="1.4155343563970746e-15"/>
    <laneAreaDetector file="e2output.xml" freq="10000" friendlyPos="x" id="e2det_edge0:3/1:3.-45_0" lane="edge0:3/1:3.-45_0" length="32.05" pos="1.4155343563970746e-15"/>
    <laneAreaDetector file="e2output.xml" freq="10000" friendlyPos="x" id="e2det_edge0:3/1:3.-45_1" lane="edge0:3/1:3.-45_1" length="32.05" pos="1.4155343563970746e-15"/>
    <laneAreaDetector file="e2output.xml" freq="10000" friendlyPos="x" id="e2det_edge0:3/1:3.-45_2" lane="edge0:3/1:3.-45_2" length="32.05" pos="1.4155343563970746e-15"/>
    <laneAreaDetector file="e2output.xml" freq="10000" friendlyPos="x" id="e2det_edge1:2/1:3.-45_0" lane="edge1:2/1:3.-45_0" length="32.05" pos="1.4155343563970746e-15"/>
    <laneAreaDetector file="e2output.xml" freq="10000" friendlyPos="x" id="e2det_edge1:2/1:3.-45_1" lane="edge1:2/1:3.-45_1" length="32.05" pos="1.4155343563970746e-15"/>
    <laneAreaDetector file="e2output.xml" freq="10000" friendlyPos="x" id="e2det_edge1:2/1:3.-45_2" lane="edge1:2/1:3.-45_2" length="32.05" pos="1.4155343563970746e-15"/>
    <laneAreaDetector file="e2output.xml" freq="10000" friendlyPos="x" id="e2det_edge1:4/1:3.-45_0" lane="edge1:4/1:3.-45_0" length="32.05" pos="1.4155343563970746e-15"/>
    <laneAreaDetector file="e2output.xml" freq="10000" friendlyPos="x" id="e2det_edge1:4/1:3.-45_1" lane="edge1:4/1:3.-45_1" length="32.05" pos="1.4155343563970746e-15"/>
    <laneAreaDetector file="e2output.xml" freq="10000" friendlyPos="x" id="e2det_edge1:4/1:3.-45_2" lane="edge1:4/1:3.-45_2" length="32.05" pos="1.4155343563970746e-15"/>
    <laneAreaDetector file="e2output.xml" freq="10000" friendlyPos="x" id="e2det_edge2:3/1:3.-45_0" lane="edge2:3/1:3.-45_0" length="32.05" pos="1.4155343563970746e-15"/>
    <laneAreaDetector file="e2output.xml" freq="10000" friendlyPos="x" id="e2det_edge2:3/1:3.-45_1" lane="edge2:3/1:3.-45_1" length="32.05" pos="1.4155343563970746e-15"/>
    <laneAreaDetector file="e2output.xml" freq="10000" friendlyPos="x" id="e2det_edge2:3/1:3.-45_2" lane="edge2:3/1:3.-45_2" length="32.05" pos="1.4155343563970746e-15"/>
    <laneAreaDetector file="e2output.xml" freq="10000" friendlyPos="x" id="e2det_edge1:0/1:-1.-45_2" lane="edge1:0/1:-1.-45_2" length="43.4" pos="1.4155343563970746e-15"/>
    <laneAreaDetector file="e2output.xml" freq="10000" friendlyPos="x" id="e2det_edge1:0/2:0.-45_0" lane="edge1:0/2:0.-45_0" length="32.05" pos="1.4155343563970746e-15"/>
    <laneAreaDetector file="e2output.xml" freq="10000" friendlyPos="x" id="e2det_edge1:0/2:0.-45_1" lane="edge1:0/2:0.-45_1" length="32.05" pos="1.4155343563970746e-15"/>
    <laneAreaDetector file="e2output.xml" freq="10000" friendlyPos="x" id="e2det_edge1:0/2:0.-45_2" lane="edge1:0/2:0.-45_2" length="32.05" pos="1.4155343563970746e-15"/>
    <laneAreaDetector file="e2output.xml" freq="10000" friendlyPos="x" id="e2det_edge2:-1/2:0.-45_0" lane="edge2:-1/2:0.-45_0" length="32.05" pos="1.4155343563970746e-15"/>
    <laneAreaDetector file="e2output.xml" freq="10000" friendlyPos="x" id="e2det_edge2:-1/2:0.-45_1" lane="edge2:-1/2:0.-45_1" length="32.05" pos="1.4155343563970746e-15"/>
    <laneAreaDetector file="e2output.xml" freq="10000" friendlyPos="x" id="e2det_edge2:-1/2:0.-45_2" lane="edge2:-1/2:0.-45_2" length="32.05" pos="1.4155343563970746e-15"/>
    <laneAreaDetector file="e2output.xml" freq="10000" friendlyPos="x" id="e2det_edge2:1/2:0.-45_0" lane="edge2:1/2:0.-45_0" length="32.05" pos="1.4155343563970746e-15"/>
    <laneAreaDetector file="e2output.xml" freq="10000" friendlyPos="x" id="e2det_edge2:1/2:0.-45_1" lane="edge2:1/2:0.-45_1" length="32.05" pos="1.4155343563970746e-15"/>
    <laneAreaDetector file="e2output.xml" freq="10000" friendlyPos="x" id="e2det_edge2:1/2:0.-45_2" lane="edge2:1/2:0.-45_2" length="32.05" pos="1.4155343563970746e-15"/>
    <laneAreaDetector file="e2output.xml" freq="10000" friendlyPos="x" id="e2det_edge3:0/2:0.-45_0" lane="edge3:0/2:0.-45_0" length="32.05" pos="1.4155343563970746e-15"/>
    <laneAreaDetector file="e2output.xml" freq="10000" friendlyPos="x" id="e2det_edge3:0/2:0.-45_1" lane="edge3:0/2:0.-45_1" length="32.05" pos="1.4155343563970746e-15"/>
    <laneAreaDetector file="e2output.xml" freq="10000" friendlyPos="x" id="e2det_edge3:0/2:0.-45_2" lane="edge3:0/2:0.-45_2" length="32.05" pos="1.4155343563970746e-15"/>
    <laneAreaDetector file="e2output.xml" freq="10000" friendlyPos="x" id="e2det_edge1:1/2:1.-45_0" lane="edge1:1/2:1.-45_0" length="32.05" pos="1.4155343563970746e-15"/>
    <laneAreaDetector file="e2output.xml" freq="10000" friendlyPos="x" id="e2det_edge1:1/2:1.-45_1" lane="edge1:1/2:1.-45_1" length="32.05" pos="1.4155343563970746e-15"/>
    <laneAreaDetector file="e2output.xml" freq="10000" friendlyPos="x" id="e2det_edge1:1/2:1.-45_2" lane="edge1:1/2:1.-45_2" length="32.05" pos="1.4155343563970746e-15"/>
    <laneAreaDetector file="e2output.xml" freq="10000" friendlyPos="x" id="e2det_edge2:0/2:1.-45_0" lane="edge2:0/2:1.-45_0" length="32.05" pos="1.4155343563970746e-15"/>
    <laneAreaDetector file="e2output.xml" freq="10000" friendlyPos="x" id="e2det_edge2:0/2:1.-45_1" lane="edge2:0/2:1.-45_1" length="32.05" pos="1.4155343563970746e-15"/>
    <laneAreaDetector file="e2output.xml" freq="10000" friendlyPos="x" id="e2det_edge2:0/2:1.-45_2" lane="edge2:0/2:1.-45_2" length="32.05" pos="1.4155343563970746e-15"/>
    <laneAreaDetector file="e2output.xml" freq="10000" friendlyPos="x" id="e2det_edge2:2/2:1.-45_0" lane="edge2:2/2:1.-45_0" length="32.05" pos="1.4155343563970746e-15"/>
    <laneAreaDetector file="e2output.xml" freq="10000" friendlyPos="x" id="e2det_edge2:2/2:1.-45_1" lane="edge2:2/2:1.-45_1" length="32.05" pos="1.4155343563970746e-15"/>
    <laneAreaDetector file="e2output.xml" freq="10000" friendlyPos="x" id="e2det_edge2:2/2:1.-45_2" lane="edge2:2/2:1.-45_2" length="32.05" pos="1.4155343563970746e-15"/>
    <laneAreaDetector file="e2output.xml" freq="10000" friendlyPos="x" id="e2det_edge3:1/2:1.-45_0" lane="edge3:1/2:1.-45_0" length="32.05" pos="1.4155343563970746e-15"/>
    <laneAreaDetector file="e2output.xml" freq="10000" friendlyPos="x" id="e2det_edge3:1/2:1.-45_1" lane="edge3:1/2:1.-45_1" length="32.05" pos="1.4155343563970746e-15"/>
    <laneAreaDetector file="e2output.xml" freq="10000" friendlyPos="x" id="e2det_edge3:1/2:1.-45_2" lane="edge3:1/2:1.-45_2" length="32.05" pos="1.4155343563970746e-15"/>
    <laneAreaDetector file="e2output.xml" freq="10000" friendlyPos="x" id="e2det_edge1:2/2:2.-45_0" lane="edge1:2/2:2.-45_0" length="32.05" pos="1.4155343563970746e-15"/>
    <laneAreaDetector file="e2output.xml" freq="10000" friendlyPos="x" id="e2det_edge1:2/2:2.-45_1" lane="edge1:2/2:2.-45_1" length="32.05" pos="1.4155343563970746e-15"/>
    <laneAreaDetector file="e2output.xml" freq="10000" friendlyPos="x" id="e2det_edge1:2/2:2.-45_2" lane="edge1:2/2:2.-45_2" length="32.05" pos="1.4155343563970746e-15"/>
    <laneAreaDetector file="e2output.xml" freq="10000" friendlyPos="x" id="e2det_edge2:1/2:2.-45_0" lane="edge2:1/2:2.-45_0" length="32.05" pos="1.4155343563970746e-15"/>
    <laneAreaDetector file="e2output.xml" freq="10000" friendlyPos="x" id="e2det_edge2:1/2:2.-45_1" lane="edge2:1/2:2.-45_1" length="32.05" pos="1.4155343563970746e-15"/>
    <laneAreaDetector file="e2output.xml" freq="10000" friendlyPos="x" id="e2det_edge2:1/2:2.-45_2" lane="edge2:1/2:2.-45_2" length="32.05" pos="1.4155343563970746e-15"/>
    <laneAreaDetector file="e2output.xml" freq="10000" friendlyPos="x" id="e2det_edge2:3/2:2.-45_0" lane="edge2:3/2:2.-45_0" length="32.05" pos="1.4155343563970746e-15"/>
    <laneAreaDetector file="e2output.xml" freq="10000" friendlyPos="x" id="e2det_edge2:3/2:2.-45_1" lane="edge2:3/2:2.-45_1" length="32.05" pos="1.4155343563970746e-15"/>
    <laneAreaDetector file="e2output.xml" freq="10000" friendlyPos="x" id="e2det_edge2:3/2:2.-45_2" lane="edge2:3/2:2.-45_2" length="32.05" pos="1.4155343563970746e-15"/>
    <laneAreaDetector file="e2output.xml" freq="10000" friendlyPos="x" id="e2det_edge3:2/2:2.-45_0" lane="edge3:2/2:2.-45_0" length="32.05" pos="1.4155343563970746e-15"/>
    <laneAreaDetector file="e2output.xml" freq="10000" friendlyPos="x" id="e2det_edge3:2/2:2.-45_1" lane="edge3:2/2:2.-45_1" length="32.05" pos="1.4155343563970746e-15"/>
    <laneAreaDetector file="e2output.xml" freq="10000" friendlyPos="x" id="e2det_edge3:2/2:2.-45_2" lane="edge3:2/2:2.-45_2" length="32.05" pos="1.4155343563970746e-15"/>
    <laneAreaDetector file="e2output.xml" freq="10000" friendlyPos="x" id="e2det_edge1:3/1:4.-45_2" lane="edge1:3/1:4.-45_2" length="43.4" pos="1.4155343563970746e-15"/>
    <laneAreaDetector file="e2output.xml" freq="10000" friendlyPos="x" id="e2det_edge1:3/2:3.-45_0" lane="edge1:3/2:3.-45_0" length="32.05" pos="1.4155343563970746e-15"/>
    <laneAreaDetector file="e2output.xml" freq="10000" friendlyPos="x" id="e2det_edge1:3/2:3.-45_1" lane="edge1:3/2:3.-45_1" length="32.05" pos="1.4155343563970746e-15"/>
    <laneAreaDetector file="e2output.xml" freq="10000" friendlyPos="x" id="e2det_edge1:3/2:3.-45_2" lane="edge1:3/2:3.-45_2" length="32.05" pos="1.4155343563970746e-15"/>
    <laneAreaDetector file="e2output.xml" freq="10000" friendlyPos="x" id="e2det_edge2:2/2:3.-45_0" lane="edge2:2/2:3.-45_0" length="32.05" pos="1.4155343563970746e-15"/>
    <laneAreaDetector file="e2output.xml" freq="10000" friendlyPos="x" id="e2det_edge2:2/2:3.-45_1" lane="edge2:2/2:3.-45_1" length="32.05" pos="1.4155343563970746e-15"/>
    <laneAreaDetector file="e2output.xml" freq="10000" friendlyPos="x" id="e2det_edge2:2/2:3.-45_2" lane="edge2:2/2:3.-45_2" length="32.05" pos="1.4155343563970746e-15"/>
    <laneAreaDetector file="e2output.xml" freq="10000" friendlyPos="x" id="e2det_edge2:4/2:3.-45_0" lane="edge2:4/2:3.-45_0" length="32.05" pos="1.4155343563970746e-15"/>
    <laneAreaDetector file="e2output.xml" freq="10000" friendlyPos="x" id="e2det_edge2:4/2:3.-45_1" lane="edge2:4/2:3.-45_1" length="32.05" pos="1.4155343563970746e-15"/>
    <laneAreaDetector file="e2output.xml" freq="10000" friendlyPos="x" id="e2det_edge2:4/2:3.-45_2" lane="edge2:4/2:3.-45_2" length="32.05" pos="1.4155343563970746e-15"/>
    <laneAreaDetector file="e2output.xml" freq="10000" friendlyPos="x" id="e2det_edge3:3/2:3.-45_0" lane="edge3:3/2:3.-45_0" length="32.05" pos="1.4155343563970746e-15"/>
    <laneAreaDetector file="e2output.xml" freq="10000" friendlyPos="x" id="e2det_edge3:3/2:3.-45_1" lane="edge3:3/2:3.-45_1" length="32.05" pos="1.4155343563970746e-15"/>
    <laneAreaDetector file="e2output.xml" freq="10000" friendlyPos="x" id="e2det_edge3:3/2:3.-45_2" lane="edge3:3/2:3.-45_2" length="32.05" pos="1.4155343563970746e-15"/>
    <laneAreaDetector file="e2output.xml" freq="10000" friendlyPos="x" id="e2det_edge2:0/2:-1.-45_2" lane="edge2:0/2:-1.-45_2" length="43.4" pos="1.4155343563970746e-15"/>
    <laneAreaDetector file="e2output.xml" freq="10000" friendlyPos="x" id="e2det_edge2:0/3:0.-45_0" lane="edge2:0/3:0.-45_0" length="32.05" pos="1.4155343563970746e-15"/>
    <laneAreaDetector file="e2output.xml" freq="10000" friendlyPos="x" id="e2det_edge2:0/3:0.-45_1" lane="edge2:0/3:0.-45_1" length="32.05" pos="1.4155343563970746e-15"/>
    <laneAreaDetector file="e2output.xml" freq="10000" friendlyPos="x" id="e2det_edge2:0/3:0.-45_2" lane="edge2:0/3:0.-45_2" length="32.05" pos="1.4155343563970746e-15"/>
    <laneAreaDetector file="e2output.xml" freq="10000" friendlyPos="x" id="e2det_edge3:-1/3:0.-45_0" lane="edge3:-1/3:0.-45_0" length="32.05" pos="1.4155343563970746e-15"/>
    <laneAreaDetector file="e2output.xml" freq="10000" friendlyPos="x" id="e2det_edge3:-1/3:0.-45_1" lane="edge3:-1/3:0.-45_1" length="32.05" pos="1.4155343563970746e-15"/>
    <laneAreaDetector file="e2output.xml" freq="10000" friendlyPos="x" id="e2det_edge3:-1/3:0.-45_2" lane="edge3:-1/3:0.-45_2" length="32.05" pos="1.4155343563970746e-15"/>
    <laneAreaDetector file="e2output.xml" freq="10000" friendlyPos="x" id="e2det_edge3:1/3:0.-45_0" lane="edge3:1/3:0.-45_0" length="32.05" pos="1.4155343563970746e-15"/>
    <laneAreaDetector file="e2output.xml" freq="10000" friendlyPos="x" id="e2det_edge3:1/3:0.-45_1" lane="edge3:1/3:0.-45_1" length="32.05" pos="1.4155343563970746e-15"/>
    <laneAreaDetector file="e2output.xml" freq="10000" friendlyPos="x" id="e2det_edge3:1/3:0.-45_2" lane="edge3:1/3:0.-45_2" length="32.05" pos="1.4155343563970746e-15"/>
    <laneAreaDetector file="e2output.xml" freq="10000" friendlyPos="x" id="e2det_edge4:0/3:0.-45_0" lane="edge4:0/3:0.-45_0" length="32.05" pos="1.4155343563970746e-15"/>
    <laneAreaDetector file="e2output.xml" freq="10000" friendlyPos="x" id="e2det_edge4:0/3:0.-45_1" lane="edge4:0/3:0.-45_1" length="32.05" pos="1.4155343563970746e-15"/>
    <laneAreaDetector file="e2output.xml" freq="10000" friendlyPos="x" id="e2det_edge4:0/3:0.-45_2" lane="edge4:0/3:0.-45_2" length="32.05" pos="1.4155343563970746e-15"/>
    <laneAreaDetector file="e2output.xml" freq="10000" friendlyPos="x" id="e2det_edge2:1/3:1.-45_0" lane="edge2:1/3:1.-45_0" length="32.05" pos="1.4155343563970746e-15"/>
    <laneAreaDetector file="e2output.xml" freq="10000" friendlyPos="x" id="e2det_edge2:1/3:1.-45_1" lane="edge2:1/3:1.-45_1" length="32.05" pos="1.4155343563970746e-15"/>
    <laneAreaDetector file="e2output.xml" freq="10000" friendlyPos="x" id="e2det_edge2:1/3:1.-45_2" lane="edge2:1/3:1.-45_2" length="32.05" pos="1.4155343563970746e-15"/>
    <laneAreaDetector file="e2output.xml" freq="10000" friendlyPos="x" id="e2det_edge3:0/3:1.-45_0" lane="edge3:0/3:1.-45_0" length="32.05" pos="1.4155343563970746e-15"/>
    <laneAreaDetector file="e2output.xml" freq="10000" friendlyPos="x" id="e2det_edge3:0/3:1.-45_1" lane="edge3:0/3:1.-45_1" length="32.05" pos="1.4155343563970746e-15"/>
    <laneAreaDetector file="e2output.xml" freq="10000" friendlyPos="x" id="e2det_edge3:0/3:1.-45_2" lane="edge3:0/3:1.-45_2" length="32.05" pos="1.4155343563970746e-15"/>
    <laneAreaDetector file="e2output.xml" freq="10000" friendlyPos="x" id="e2det_edge3:2/3:1.-45_0" lane="edge3:2/3:1.-45_0" length="32.05" pos="1.4155343563970746e-15"/>
    <laneAreaDetector file="e2output.xml" freq="10000" friendlyPos="x" id="e2det_edge3:2/3:1.-45_1" lane="edge3:2/3:1.-45_1" length="32.05" pos="1.4155343563970746e-15"/>
    <laneAreaDetector file="e2output.xml" freq="10000" friendlyPos="x" id="e2det_edge3:2/3:1.-45_2" lane="edge3:2/3:1.-45_2" length="32.05" pos="1.4155343563970746e-15"/>