<edges><edge from="node-1:0" id="edge-1:0/0:0" numLanes="3" to="node0:0"><split lanes="0 1" pos="0" /><split lanes="0 1 2" pos="-45" /></edge><edge from="node0:0" id="edge0:0/-1:0" numLanes="3" to="node-1:0"><split lanes="0 1" pos="0" /><split lanes="0 1 2" pos="-45" /></edge><edge from="node-1:1" id="edge-1:1/0:1" numLanes="3" to="node0:1"><split lanes="0 1" pos="0" /><split lanes="0 1 2" pos="-45" /></edge><edge from="node0:1" id="edge0:1/-1:1" numLanes="3" to="node-1:1"><split lanes="0 1" pos="0" /><split lanes="0 1 2" pos="-45" /></edge><edge from="node-1:2" id="edge-1:2/0:2" numLanes="3" to="node0:2"><split lanes="0 1" pos="0" /><split lanes="0 1 2" pos="-45" /></edge><edge from="node0:2" id="edge0:2/-1:2" numLanes="3" to="node-1:2"><split lanes="0 1" pos="0" /><split lanes="0 1 2" pos="-45" /></edge><edge from="node-1:3" id="edge-1:3/0:3" numLanes="3" to="node0:3"><split lanes="0 1" pos="0" /><split lanes="0 1 2" pos="-45" /></edge><edge from="node0:3" id="edge0:3/-1:3" numLanes="3" to="node-1:3"><split lanes="0 1" pos="0" /><split lanes="0 1 2" pos="-45" /></edge><edge from="node0:-1" id="edge0:-1/0:0" numLanes="3" to="node0:0"><split lanes="0 1" pos="0" /><split lanes="0 1 2" pos="-45" /></edge><edge from="node0:0" id="edge0:0/0:-1" numLanes="3" to="node0:-1"><split lanes="0 1" pos="0" /><split lanes="0 1 2" pos="-45" /></edge><edge from="node0:0" id="edge0:0/1:0" numLanes="3" to="node1:0"><split lanes="0 1" pos="0" /><split lanes="0 1 2" pos="-45" /></edge><edge from="node1:0" id="edge1:0/0:0" numLanes="3" to="node0:0"><split lanes="0 1" pos="0" /><split lanes="0 1 2" pos="-45" /></edge><edge from="node0:0" id="edge0:0/0:1" numLanes="3" to="node0:1"><split lanes="0 1" pos="0" /><split lanes="0 1 2" pos="-45" /></edge><edge from="node0:1" id="edge0:1/0:0" numLanes="3" to="node0:0"><split lanes="0 1" pos="0" /><split lanes="0 1 2" pos="-45" /></edge><edge from="node0:1" id="edge0:1/1:1" numLanes="3" to="node1:1"><split lanes="0 1" pos="0" /><split lanes="0 1 2" pos="-45" /></edge><edge from="node1:1" id="edge1:1/0:1" numLanes="3" to="node0:1"><split lanes="0 1" pos="0" /><split lanes="0 1 2" pos="-45" /></edge><edge from="node0:1" id="edge0:1/0:2" numLanes="3" to="node0:2"><split lanes="0 1" pos="0" /><split lanes="0 1 2" pos="-45" /></edge><edge from="node0:2" id="edge0:2/0:1" numLanes="3" to="node0:1"><split lanes="0 1" pos="0" /><split lanes="0 1 2" pos="-45" /></edge><edge from="node0:2" id="edge0:2/1:2" numLanes="3" to="node1:2"><split lanes="0 1" pos="0" /><split lanes="0 1 2" pos="-45" /></edge><edge from="node1:2" id="edge1:2/0:2" numLanes="3" to="node0:2"><split lanes="0 1" pos="0" /><split lanes="0 1 2" pos="-45" /></edge><edge from="node0:2" id="edge0:2/0:3" numLanes="3" to="node0:3"><split lanes="0 1" pos="0" /><split lanes="0 1 2" pos="-45" /></edge><edge from="node0:3" id="edge0:3/0:2" numLanes="3" to="node0:2"><split lanes="0 1" pos="0" /><split lanes="0 1 2" pos="-45" /></edge><edge from="node0:3" id="edge0:3/1:3" numLanes="3" to="node1:3"><split lanes="0 1" pos="0" /><split lanes="0 1 2" pos="-45" /></edge><edge from="node1:3" id="edge1:3/0:3" numLanes="3" to="node0:3"><split lanes="0 1" pos="0" /><split lanes="0 1 2" pos="-45" /></edge><edge from="node0:3" id="edge0:3/0:4" numLanes="3" to="node0:4"><split lanes="0 1" pos="0" /><split lanes="0 1 2" pos="-45" /></edge><edge from="node0:4" id="edge0:4/0:3" numLanes="3" to="node0:3"><split lanes="0 1" pos="0" /><split lanes="0 1 2" pos="-45" /></edge><edge from="node1:-1" id="edge1:-1/1:0" numLanes="3" to="node1:0"><split lanes="0 1" pos="0" /><split lanes="0 1 2" pos="-45" /></edge><edge from="node1:0" id="edge1:0/1:-1" numLanes="3" to="node1:-1"><split lanes="0 1" pos="0" /><split lanes="0 1 2" pos="-45" /></edge><edge from="node1:0" id="edge1:0/2:0" numLanes="3" to="node2:0"><split lanes="0 1" pos="0" /><split lanes="0 1 2" pos="-45" /></edge><edge from="node2:0" id="edge2:0/1:0" numLanes="3" to="node1:0"><split lanes="0 1" pos="0" /><split lanes="0 1 2" pos="-45" /></edge><edge from="node1:0" id="edge1:0/1:1" numLanes="3" to="node1:1"><split lanes="0 1" pos="0" /><split lanes="0 1 2" pos="-45" /></edge><edge from="node1:1" id="edge1:1/1:0" numLanes="3" to="node1:0"><split lanes="0 1" pos="0" /><split lanes="0 1 2" pos="-45" /></edge><edge from="node1:1" id="edge1:1/2:1" numLanes="3" to="node2:1"><split lanes="0 1" pos="0" /><split lanes="0 1 2" pos="-45" /></edge><edge from="node2:1" id="edge2:1/1:1" numLanes="3" to="node1:1"><split lanes="0 1" pos="0" /><split lanes="0 1 2" pos="-45" /></edge><edge from="node1:1" id="edge1:1/1:2" numLanes="3" to="node1:2"><split lanes="0 1" pos="0" /><split lanes="0 1 2" pos="-45" /></edge><edge from="node1:2" id="edge1:2/1:1" numLanes="3" to="node1:1"><split lanes="0 1" pos="0" /><split lanes="0 1 2" pos="-45" /></edge><edge from="node1:2" id="edge1:2/2:2" numLanes="3" to="node2:2"><split lanes="0 1" pos="0" /><split lanes="0 1 2" pos="-45" /></edge><edge from="node2:2" id="edge2:2/1:2" numLanes="3" to="node1:2"><split lanes="0 1" pos="0" /><split lanes="0 1 2" pos="-45" /></edge><edge from="node1:2" id="edge1:2/1:3" numLanes="3" to="node1:3"><split lanes="0 1" pos="0" /><split lanes="0 1 2" pos="-45" /></edge><edge from="node1:3" id="edge1:3/1:2" numLanes="3" to="node1:2"><split lanes="0 1" pos="0" /><split lanes="0 1 2" pos="-45" /></edge><edge from="node1:3" id="edge1:3/2:3" numLanes="3" to="node2:3"><split lanes="0 1" pos="0" /><split lanes="0 1 2" pos="-45" /></edge><edge from="node2:3" id="edge2:3/1:3" numLanes="3" to="node1:3"><split lanes="0 1" pos="0" /><split lanes="0 1 2" pos="-45" /></edge><edge from="node1:3" id="edge1:3/1:4" numLanes="3" to="node1:4"><split lanes="0 1" pos="0" /><split lanes="0 1 2" pos="-45" /></edge><edge from="node1:4" id="edge1:4/1:3" numLanes="3" to="node1:3"><split lanes="0 1" pos="0" /><split lanes="0 1 2" pos="-45" /></edge><edge from="node2:-1" id="edge2:-1/2:0" numLanes="3" to="node2:0"><split lanes="0 1" pos="0" /><split lanes="0 1 2" pos="-45" /></edge><edge from="node2:0" id="edge2:0/2:-1" numLanes="3" to="node2:-1"><split lanes="0 1" pos="0" /><split lanes="0 1 2" pos="-45" /></edge><edge from="node2:0" id="edge2:0/3:0" numLanes="3" to="node3:0"><split lanes="0 1" pos="0" /><split lanes="0 1 2" pos="-45" /></edge><edge from="node3:0" id="edge3:0/2:0" numLanes="3" to="node2:0"><split lanes="0 1" pos="0" /><split lanes="0 1 2" pos="-45" /></edge><edge from="node2:0" id="edge2:0/2:1" numLanes="3" to="node2:1"><split lanes="0 1" pos="0" /><split lanes="0 1 2" pos="-45" /></edge><edge from="node2:1" id="edge2:1/2:0" numLanes="3" to="node2:0"><split lanes="0 1" pos="0" /><split lanes="0 1 2" pos="-45" /></edge><edge from="node2:1" id="edge2:1/3:1" numLanes="3" to="node3:1"><split lanes="0 1" pos="0" /><split lanes="0 1 2" pos="-45" /></edge><edge from="node3:1" id="edge3:1/2:1" numLanes="3" to="node2:1"><split lanes="0 1" pos="0" /><split lanes="0 1 2" pos="-45" /></edge><edge from="node2:1" id="edge2:1/2:2" numLanes="3" to="node2:2"><split lanes="0 1" pos="0" /><split lanes="0 1 2" pos="-45" /></edge><edge from="node2:2" id="edge2:2/2:1" numLanes="3" to="node2:1"><split lanes="0 1" pos="0" /><split lanes="0 1 2" pos="-45" /></edge><edge from="node2:2" id="edge2:2/3:2" numLanes="3" to="node3:2"><split lanes="0 1" pos="0" /><split lanes="0 1 2" pos="-45" /></edge><edge from="node3:2" id="edge3:2/2:2" numLanes="3" to="node2:2"><split lanes="0 1" pos="0" /><split lanes="0 1 2" pos="-45" /></edge><edge from="node2:2" id="edge2:2/2:3" numLanes="3" to="node2:3"><split lanes="0 1" pos="0" /><split lanes="0 1 2" pos="-45" /></edge><edge from="node2:3" id="edge2:3/2:2" numLanes="3" to="node2:2"><split lanes="0 1" pos="0" /><split lanes="0 1 2" pos="-45" /></edge><edge from="node2:3" id="edge2:3/3:3" numLanes="3" to="node3:3"><split lanes="0 1" pos="0" /><split lanes="0 1 2" pos="-45" /></edge><edge from="node3:3" id="edge3:3/2:3" numLanes="3" to="node2:3"><split lanes="0 1" pos="0" /><split lanes="0 1 2" pos="-45" /></edge><edge from="node2:3" id="edge2:3/2:4" numLanes="3" to="node2:4"><split lanes="0 1" pos="0" /><split lanes="0 1 2" pos="-45" /></edge><edge from="node2:4" id="edge2:4/2:3" numLanes="3" to="node2:3"><split lanes="0 1" pos="0" /><split lanes="0 1 2" pos="-45" /></edge><edge from="node3:-1" id="edge3:-1/3:0" numLanes="3" to="node3:0"><split lanes="0 1" pos="0" /><split lanes="0 1 2" pos="-45" /></edge><edge from="node3:0" id="edge3:0/3:-1" numLanes="3" to="node3:-1"><split lanes="0 1" pos="0" /><split lanes="0 1 2" pos="-45" /></edge><edge from="node3:0" id="edge3:0/4:0" numLanes="3" to="node4:0"><split lanes="0 1" pos="0" /><split lanes="0 1 2" pos="-45" /></edge><edge from="node4:0" id="edge4:0/3:0" numLanes="3" to="node3:0"><split lanes="0 1" pos="0" /><split lanes="0 1 2" pos="-45" /></edge><edge from="node3:0" id="edge3:0/3:1" numLanes="3" to="node3:1"><split lanes="0 1" pos="0" /><split lanes="0 1 2" pos="-45" /></edge><edge from="node3:1" id="edge3:1/3:0" numLanes="3" to="node3:0"><split lanes="0 1" pos="0" /><split lanes="0 1 2" pos="-45" /></edge><edge from="node3:1" id="edge3:1/4:1" numLanes="3" to="node4:1"><split lanes="0 1" pos="0" /><split lanes="0 1 2" pos="-45" /></edge><edge from="node4:1" id="edge4:1/3:1" numLanes="3" to="node3:1"><split lanes="0 1" pos="0" /><split lanes="0 1 2" pos="-45" /></edge><edge from="node3:1" id="edge3:1/3:2" numLanes="3" to="node3:2"><split lanes="0 1" pos="0" /><split lanes="0 1 2" pos="-45" /></edge><edge from="node3:2" id="edge3:2/3:1" numLanes="3" to="node3:1"><split lanes="0 1" pos="0" /><split lanes="0 1 2" pos="-45" /></edge><edge from="node3:2" id="edge3:2/4:2" numLanes="3" to="node4:2"><split lanes="0 1" pos="0" /><split lanes="0 1 2" pos="-45" /></edge><edge from="node4:2" id="edge4:2/3:2" numLanes="3" to="node3:2"><split lanes="0 1" pos="0" /><split lanes="0 1 2" pos="-45" /></edge><edge from="node3:2" id="edge3:2/3:3" numLanes="3" to="node3:3"><split lanes="0 1" pos="0" /><split lanes="0 1 2" pos="-45" /></edge><edge from="node3:3" id="edge3:3/3:2" numLanes="3" to="node3:2"><split lanes="0 1" pos="0" /><split lanes="0 1 2" pos="-45" /></edge><edge from="node3:3" id="edge3:3/4:3" numLanes="3" to="node4:3"><split lanes="0 1" pos="0" /><split lanes="0 1 2" pos="-45" /></edge><edge from="node4:3" id="edge4:3/3:3" numLanes="3" to="node3:3"><split lanes="0 1" pos="0" /><split lanes="0 1 2" pos="-45" /></edge><edge from="node3:3" id="edge3:3/3:4" numLanes="3" to="node3:4"><split lanes="0 1" pos="0" /><split lanes="0 1 2" pos="-45" /></edge><edge from="node3:4" id="edge3:4/3:3" numLanes="3" to="node3:3"><split lanes="0 1" pos="0" /><split lanes="0 1 2" pos="-45" /></edge></edges>