<?xml version="1.0" encoding="UTF-8"?>

<!-- generated on 04/23/18 12:31:49 by SUMO netconvert Version 0.32.0
<?xml version="1.0" encoding="UTF-8"?>

<configuration xmlns:xsi="http://www.w3.org/2001/XMLSchema-instance" xsi:noNamespaceSchemaLocation="http://sumo.dlr.de/xsd/netconvertConfiguration.xsd">

    <input>
        <node-files value=".\grid2.nod.xml"/>
        <edge-files value=".\grid2.edg.xml"/>
        <connection-files value=".\grid2.con.xml"/>
    </input>

    <output>
        <output-file value="grid2.net.xml"/>
    </output>

</configuration>
-->

<net version="0.27" xmlns:xsi="http://www.w3.org/2001/XMLSchema-instance" xsi:noNamespaceSchemaLocation="http://sumo.dlr.de/xsd/net_file.xsd">

    <location netOffset="0.00,0.00" convBoundary="0.00,0.00,1100.00,1100.00" origBoundary="0.00,0.00,1100.00,1100.00" projParameter="!"/>

    <edge id=":edge-1:0/0:0.-45_0" function="internal">
        <lane id=":edge-1:0/0:0.-45_0_0" index="0" speed="13.90" length="3.49" shape="53.50,91.75 56.50,91.75"/>
        <lane id=":edge-1:0/0:0.-45_0_1" index="1" speed="13.90" length="3.49" shape="53.50,95.05 56.50,95.05"/>
        <lane id=":edge-1:0/0:0.-45_0_2" index="2" speed="13.90" length="3.49" shape="53.50,95.05 56.50,98.35"/>
    </edge>
    <edge id=":edge-1:1/0:1.-45_0" function="internal">
        <lane id=":edge-1:1/0:1.-45_0_0" index="0" speed="13.90" length="3.49" shape="53.50,391.75 56.50,391.75"/>
        <lane id=":edge-1:1/0:1.-45_0_1" index="1" speed="13.90" length="3.49" shape="53.50,395.05 56.50,395.05"/>
        <lane id=":edge-1:1/0:1.-45_0_2" index="2" speed="13.90" length="3.49" shape="53.50,395.05 56.50,398.35"/>
    </edge>
    <edge id=":edge-1:2/0:2.-45_0" function="internal">
        <lane id=":edge-1:2/0:2.-45_0_0" index="0" speed="13.90" length="3.49" shape="53.50,691.75 56.50,691.75"/>
        <lane id=":edge-1:2/0:2.-45_0_1" index="1" speed="13.90" length="3.49" shape="53.50,695.05 56.50,695.05"/>
        <lane id=":edge-1:2/0:2.-45_0_2" index="2" speed="13.90" length="3.49" shape="53.50,695.05 56.50,698.35"/>
    </edge>
    <edge id=":edge-1:3/0:3.-45_0" function="internal">
        <lane id=":edge-1:3/0:3.-45_0_0" index="0" speed="13.90" length="3.49" shape="53.50,991.75 56.50,991.75"/>
        <lane id=":edge-1:3/0:3.-45_0_1" index="1" speed="13.90" length="3.49" shape="53.50,995.05 56.50,995.05"/>
        <lane id=":edge-1:3/0:3.-45_0_2" index="2" speed="13.90" length="3.49" shape="53.50,995.05 56.50,998.35"/>
    </edge>
    <edge id=":edge0:-1/0:0.-45_0" function="internal">
        <lane id=":edge0:-1/0:0.-45_0_0" index="0" speed="13.90" length="3.49" shape="108.25,53.50 108.25,56.50"/>
        <lane id=":edge0:-1/0:0.-45_0_1" index="1" speed="13.90" length="3.49" shape="104.95,53.50 104.95,56.50"/>
        <lane id=":edge0:-1/0:0.-45_0_2" index="2" speed="13.90" length="3.49" shape="104.95,53.50 101.65,56.50"/>
    </edge>
    <edge id=":edge0:0/-1:0.-45_0" function="internal">
        <lane id=":edge0:0/-1:0.-45_0_0" index="0" speed="13.90" length="3.49" shape="46.50,108.25 43.50,108.25"/>
        <lane id=":edge0:0/-1:0.-45_0_1" index="1" speed="13.90" length="3.49" shape="46.50,104.95 43.50,104.95"/>
        <lane id=":edge0:0/-1:0.-45_0_2" index="2" speed="13.90" length="3.49" shape="46.50,104.95 43.50,101.65"/>
    </edge>
    <edge id=":edge0:0/0:-1.-45_0" function="internal">
        <lane id=":edge0:0/0:-1.-45_0_0" index="0" speed="13.90" length="3.49" shape="91.75,46.50 91.75,43.50"/>
        <lane id=":edge0:0/0:-1.-45_0_1" index="1" speed="13.90" length="3.49" shape="95.05,46.50 95.05,43.50"/>
        <lane id=":edge0:0/0:-1.-45_0_2" index="2" speed="13.90" length="3.49" shape="95.05,46.50 98.35,43.50"/>
    </edge>
    <edge id=":edge0:0/0:1.-45_0" function="internal">
        <lane id=":edge0:0/0:1.-45_0_0" index="0" speed="13.90" length="3.49" shape="108.25,353.50 108.25,356.50"/>
        <lane id=":edge0:0/0:1.-45_0_1" index="1" speed="13.90" length="3.49" shape="104.95,353.50 104.95,356.50"/>
        <lane id=":edge0:0/0:1.-45_0_2" index="2" speed="13.90" length="3.49" shape="104.95,353.50 101.65,356.50"/>
    </edge>
    <edge id=":edge0:0/1:0.-45_0" function="internal">
        <lane id=":edge0:0/1:0.-45_0_0" index="0" speed="13.90" length="3.49" shape="353.50,91.75 356.50,91.75"/>
        <lane id=":edge0:0/1:0.-45_0_1" index="1" speed="13.90" length="3.49" shape="353.50,95.05 356.50,95.05"/>
        <lane id=":edge0:0/1:0.-45_0_2" index="2" speed="13.90" length="3.49" shape="353.50,95.05 356.50,98.35"/>
    </edge>
    <edge id=":edge0:1/-1:1.-45_0" function="internal">
        <lane id=":edge0:1/-1:1.-45_0_0" index="0" speed="13.90" length="3.49" shape="46.50,408.25 43.50,408.25"/>
        <lane id=":edge0:1/-1:1.-45_0_1" index="1" speed="13.90" length="3.49" shape="46.50,404.95 43.50,404.95"/>
        <lane id=":edge0:1/-1:1.-45_0_2" index="2" speed="13.90" length="3.49" shape="46.50,404.95 43.50,401.65"/>
    </edge>
    <edge id=":edge0:1/0:0.-45_0" function="internal">
        <lane id=":edge0:1/0:0.-45_0_0" index="0" speed="13.90" length="3.49" shape="91.75,146.50 91.75,143.50"/>
        <lane id=":edge0:1/0:0.-45_0_1" index="1" speed="13.90" length="3.49" shape="95.05,146.50 95.05,143.50"/>
        <lane id=":edge0:1/0:0.-45_0_2" index="2" speed="13.90" length="3.49" shape="95.05,146.50 98.35,143.50"/>
    </edge>
    <edge id=":edge0:1/0:2.-45_0" function="internal">
        <lane id=":edge0:1/0:2.-45_0_0" index="0" speed="13.90" length="3.49" shape="108.25,653.50 108.25,656.50"/>
        <lane id=":edge0:1/0:2.-45_0_1" index="1" speed="13.90" length="3.49" shape="104.95,653.50 104.95,656.50"/>
        <lane id=":edge0:1/0:2.-45_0_2" index="2" speed="13.90" length="3.49" shape="104.95,653.50 101.65,656.50"/>
    </edge>
    <edge id=":edge0:1/1:1.-45_0" function="internal">
        <lane id=":edge0:1/1:1.-45_0_0" index="0" speed="13.90" length="3.49" shape="353.50,391.75 356.50,391.75"/>
        <lane id=":edge0:1/1:1.-45_0_1" index="1" speed="13.90" length="3.49" shape="353.50,395.05 356.50,395.05"/>
        <lane id=":edge0:1/1:1.-45_0_2" index="2" speed="13.90" length="3.49" shape="353.50,395.05 356.50,398.35"/>
    </edge>
    <edge id=":edge0:2/-1:2.-45_0" function="internal">
        <lane id=":edge0:2/-1:2.-45_0_0" index="0" speed="13.90" length="3.49" shape="46.50,708.25 43.50,708.25"/>
        <lane id=":edge0:2/-1:2.-45_0_1" index="1" speed="13.90" length="3.49" shape="46.50,704.95 43.50,704.95"/>
        <lane id=":edge0:2/-1:2.-45_0_2" index="2" speed="13.90" length="3.49" shape="46.50,704.95 43.50,701.65"/>
    </edge>
    <edge id=":edge0:2/0:1.-45_0" function="internal">
        <lane id=":edge0:2/0:1.-45_0_0" index="0" speed="13.90" length="3.49" shape="91.75,446.50 91.75,443.50"/>
        <lane id=":edge0:2/0:1.-45_0_1" index="1" speed="13.90" length="3.49" shape="95.05,446.50 95.05,443.50"/>
        <lane id=":edge0:2/0:1.-45_0_2" index="2" speed="13.90" length="3.49" shape="95.05,446.50 98.35,443.50"/>
    </edge>
    <edge id=":edge0:2/0:3.-45_0" function="internal">
        <lane id=":edge0:2/0:3.-45_0_0" index="0" speed="13.90" length="3.49" shape="108.25,953.50 108.25,956.50"/>
        <lane id=":edge0:2/0:3.-45_0_1" index="1" speed="13.90" length="3.49" shape="104.95,953.50 104.95,956.50"/>
        <lane id=":edge0:2/0:3.-45_0_2" index="2" speed="13.90" length="3.49" shape="104.95,953.50 101.65,956.50"/>
    </edge>
    <edge id=":edge0:2/1:2.-45_0" function="internal">
        <lane id=":edge0:2/1:2.-45_0_0" index="0" speed="13.90" length="3.49" shape="353.50,691.75 356.50,691.75"/>
        <lane id=":edge0:2/1:2.-45_0_1" index="1" speed="13.90" length="3.49" shape="353.50,695.05 356.50,695.05"/>
        <lane id=":edge0:2/1:2.-45_0_2" index="2" speed="13.90" length="3.49" shape="353.50,695.05 356.50,698.35"/>
    </edge>
    <edge id=":edge0:3/-1:3.-45_0" function="internal">
        <lane id=":edge0:3/-1:3.-45_0_0" index="0" speed="13.90" length="3.49" shape="46.50,1008.25 43.50,1008.25"/>
        <lane id=":edge0:3/-1:3.-45_0_1" index="1" speed="13.90" length="3.49" shape="46.50,1004.95 43.50,1004.95"/>
        <lane id=":edge0:3/-1:3.-45_0_2" index="2" speed="13.90" length="3.49" shape="46.50,1004.95 43.50,1001.65"/>
    </edge>
    <edge id=":edge0:3/0:2.-45_0" function="internal">
        <lane id=":edge0:3/0:2.-45_0_0" index="0" speed="13.90" length="3.49" shape="91.75,746.50 91.75,743.50"/>
        <lane id=":edge0:3/0:2.-45_0_1" index="1" speed="13.90" length="3.49" shape="95.05,746.50 95.05,743.50"/>
        <lane id=":edge0:3/0:2.-45_0_2" index="2" speed="13.90" length="3.49" shape="95.05,746.50 98.35,743.50"/>
    </edge>
    <edge id=":edge0:3/0:4.-45_0" function="internal">
        <lane id=":edge0:3/0:4.-45_0_0" index="0" speed="13.90" length="3.49" shape="108.25,1053.50 108.25,1056.50"/>
        <lane id=":edge0:3/0:4.-45_0_1" index="1" speed="13.90" length="3.49" shape="104.95,1053.50 104.95,1056.50"/>
        <lane id=":edge0:3/0:4.-45_0_2" index="2" speed="13.90" length="3.49" shape="104.95,1053.50 101.65,1056.50"/>
    </edge>
    <edge id=":edge0:3/1:3.-45_0" function="internal">
        <lane id=":edge0:3/1:3.-45_0_0" index="0" speed="13.90" length="3.49" shape="353.50,991.75 356.50,991.75"/>
        <lane id=":edge0:3/1:3.-45_0_1" index="1" speed="13.90" length="3.49" shape="353.50,995.05 356.50,995.05"/>
        <lane id=":edge0:3/1:3.-45_0_2" index="2" speed="13.90" length="3.49" shape="353.50,995.05 356.50,998.35"/>
    </edge>
    <edge id=":edge0:4/0:3.-45_0" function="internal">
        <lane id=":edge0:4/0:3.-45_0_0" index="0" speed="13.90" length="3.49" shape="91.75,1046.50 91.75,1043.50"/>
        <lane id=":edge0:4/0:3.-45_0_1" index="1" speed="13.90" length="3.49" shape="95.05,1046.50 95.05,1043.50"/>
        <lane id=":edge0:4/0:3.-45_0_2" index="2" speed="13.90" length="3.49" shape="95.05,1046.50 98.35,1043.50"/>
    </edge>
    <edge id=":edge1:-1/1:0.-45_0" function="internal">
        <lane id=":edge1:-1/1:0.-45_0_0" index="0" speed="13.90" length="3.49" shape="408.25,53.50 408.25,56.50"/>
        <lane id=":edge1:-1/1:0.-45_0_1" index="1" speed="13.90" length="3.49" shape="404.95,53.50 404.95,56.50"/>
        <lane id=":edge1:-1/1:0.-45_0_2" index="2" speed="13.90" length="3.49" shape="404.95,53.50 401.65,56.50"/>
    </edge>
    <edge id=":edge1:0/0:0.-45_0" function="internal">
        <lane id=":edge1:0/0:0.-45_0_0" index="0" speed="13.90" length="3.49" shape="146.50,108.25 143.50,108.25"/>
        <lane id=":edge1:0/0:0.-45_0_1" index="1" speed="13.90" length="3.49" shape="146.50,104.95 143.50,104.95"/>
        <lane id=":edge1:0/0:0.-45_0_2" index="2" speed="13.90" length="3.49" shape="146.50,104.95 143.50,101.65"/>
    </edge>
    <edge id=":edge1:0/1:-1.-45_0" function="internal">
        <lane id=":edge1:0/1:-1.-45_0_0" index="0" speed="13.90" length="3.49" shape="391.75,46.50 391.75,43.50"/>
        <lane id=":edge1:0/1:-1.-45_0_1" index="1" speed="13.90" length="3.49" shape="395.05,46.50 395.05,43.50"/>
        <lane id=":edge1:0/1:-1.-45_0_2" index="2" speed="13.90" length="3.49" shape="395.05,46.50 398.35,43.50"/>
    </edge>
    <edge id=":edge1:0/1:1.-45_0" function="internal">
        <lane id=":edge1:0/1:1.-45_0_0" index="0" speed="13.90" length="3.49" shape="408.25,353.50 408.25,356.50"/>
        <lane id=":edge1:0/1:1.-45_0_1" index="1" speed="13.90" length="3.49" shape="404.95,353.50 404.95,356.50"/>
        <lane id=":edge1:0/1:1.-45_0_2" index="2" speed="13.90" length="3.49" shape="404.95,353.50 401.65,356.50"/>
    </edge>
    <edge id=":edge1:0/2:0.-45_0" function="internal">
        <lane id=":edge1:0/2:0.-45_0_0" index="0" speed="13.90" length="3.49" shape="653.50,91.75 656.50,91.75"/>
        <lane id=":edge1:0/2:0.-45_0_1" index="1" speed="13.90" length="3.49" shape="653.50,95.05 656.50,95.05"/>
        <lane id=":edge1:0/2:0.-45_0_2" index="2" speed="13.90" length="3.49" shape="653.50,95.05 656.50,98.35"/>
    </edge>
    <edge id=":edge1:1/0:1.-45_0" function="internal">
        <lane id=":edge1:1/0:1.-45_0_0" index="0" speed="13.90" length="3.49" shape="146.50,408.25 143.50,408.25"/>
        <lane id=":edge1:1/0:1.-45_0_1" index="1" speed="13.90" length="3.49" shape="146.50,404.95 143.50,404.95"/>
        <lane id=":edge1:1/0:1.-45_0_2" index="2" speed="13.90" length="3.49" shape="146.50,404.95 143.50,401.65"/>
    </edge>
    <edge id=":edge1:1/1:0.-45_0" function="internal">
        <lane id=":edge1:1/1:0.-45_0_0" index="0" speed="13.90" length="3.49" shape="391.75,146.50 391.75,143.50"/>
        <lane id=":edge1:1/1:0.-45_0_1" index="1" speed="13.90" length="3.49" shape="395.05,146.50 395.05,143.50"/>
        <lane id=":edge1:1/1:0.-45_0_2" index="2" speed="13.90" length="3.49" shape="395.05,146.50 398.35,143.50"/>
    </edge>
    <edge id=":edge1:1/1:2.-45_0" function="internal">
        <lane id=":edge1:1/1:2.-45_0_0" index="0" speed="13.90" length="3.49" shape="408.25,653.50 408.25,656.50"/>
        <lane id=":edge1:1/1:2.-45_0_1" index="1" speed="13.90" length="3.49" shape="404.95,653.50 404.95,656.50"/>
        <lane id=":edge1:1/1:2.-45_0_2" index="2" speed="13.90" length="3.49" shape="404.95,653.50 401.65,656.50"/>
    </edge>
    <edge id=":edge1:1/2:1.-45_0" function="internal">
        <lane id=":edge1:1/2:1.-45_0_0" index="0" speed="13.90" length="3.49" shape="653.50,391.75 656.50,391.75"/>
        <lane id=":edge1:1/2:1.-45_0_1" index="1" speed="13.90" length="3.49" shape="653.50,395.05 656.50,395.05"/>
        <lane id=":edge1:1/2:1.-45_0_2" index="2" speed="13.90" length="3.49" shape="653.50,395.05 656.50,398.35"/>
    </edge>
    <edge id=":edge1:2/0:2.-45_0" function="internal">
        <lane id=":edge1:2/0:2.-45_0_0" index="0" speed="13.90" length="3.49" shape="146.50,708.25 143.50,708.25"/>
        <lane id=":edge1:2/0:2.-45_0_1" index="1" speed="13.90" length="3.49" shape="146.50,704.95 143.50,704.95"/>
        <lane id=":edge1:2/0:2.-45_0_2" index="2" speed="13.90" length="3.49" shape="146.50,704.95 143.50,701.65"/>
    </edge>
    <edge id=":edge1:2/1:1.-45_0" function="internal">
        <lane id=":edge1:2/1:1.-45_0_0" index="0" speed="13.90" length="3.49" shape="391.75,446.50 391.75,443.50"/>
        <lane id=":edge1:2/1:1.-45_0_1" index="1" speed="13.90" length="3.49" shape="395.05,446.50 395.05,443.50"/>
        <lane id=":edge1:2/1:1.-45_0_2" index="2" speed="13.90" length="3.49" shape="395.05,446.50 398.35,443.50"/>
    </edge>
    <edge id=":edge1:2/1:3.-45_0" function="internal">
        <lane id=":edge1:2/1:3.-45_0_0" index="0" speed="13.90" length="3.49" shape="408.25,953.50 408.25,956.50"/>
        <lane id=":edge1:2/1:3.-45_0_1" index="1" speed="13.90" length="3.49" shape="404.95,953.50 404.95,956.50"/>
        <lane id=":edge1:2/1:3.-45_0_2" index="2" speed="13.90" length="3.49" shape="404.95,953.50 401.65,956.50"/>
    </edge>
    <edge id=":edge1:2/2:2.-45_0" function="internal">
        <lane id=":edge1:2/2:2.-45_0_0" index="0" speed="13.90" length="3.49" shape="653.50,691.75 656.50,691.75"/>
        <lane id=":edge1:2/2:2.-45_0_1" index="1" speed="13.90" length="3.49" shape="653.50,695.05 656.50,695.05"/>
        <lane id=":edge1:2/2:2.-45_0_2" index="2" speed="13.90" length="3.49" shape="653.50,695.05 656.50,698.35"/>
    </edge>
    <edge id=":edge1:3/0:3.-45_0" function="internal">
        <lane id=":edge1:3/0:3.-45_0_0" index="0" speed="13.90" length="3.49" shape="146.50,1008.25 143.50,1008.25"/>
        <lane id=":edge1:3/0:3.-45_0_1" index="1" speed="13.90" length="3.49" shape="146.50,1004.95 143.50,1004.95"/>
        <lane id=":edge1:3/0:3.-45_0_2" index="2" speed="13.90" length="3.49" shape="146.50,1004.95 143.50,1001.65"/>
    </edge>
    <edge id=":edge1:3/1:2.-45_0" function="internal">
        <lane id=":edge1:3/1:2.-45_0_0" index="0" speed="13.90" length="3.49" shape="391.75,746.50 391.75,743.50"/>
        <lane id=":edge1:3/1:2.-45_0_1" index="1" speed="13.90" length="3.49" shape="395.05,746.50 395.05,743.50"/>
        <lane id=":edge1:3/1:2.-45_0_2" index="2" speed="13.90" length="3.49" shape="395.05,746.50 398.35,743.50"/>
    </edge>
    <edge id=":edge1:3/1:4.-45_0" function="internal">
        <lane id=":edge1:3/1:4.-45_0_0" index="0" speed="13.90" length="3.49" shape="408.25,1053.50 408.25,1056.50"/>
        <lane id=":edge1:3/1:4.-45_0_1" index="1" speed="13.90" length="3.49" shape="404.95,1053.50 404.95,1056.50"/>
        <lane id=":edge1:3/1:4.-45_0_2" index="2" speed="13.90" length="3.49" shape="404.95,1053.50 401.65,1056.50"/>
    </edge>
    <edge id=":edge1:3/2:3.-45_0" function="internal">
        <lane id=":edge1:3/2:3.-45_0_0" index="0" speed="13.90" length="3.49" shape="653.50,991.75 656.50,991.75"/>
        <lane id=":edge1:3/2:3.-45_0_1" index="1" speed="13.90" length="3.49" shape="653.50,995.05 656.50,995.05"/>
        <lane id=":edge1:3/2:3.-45_0_2" index="2" speed="13.90" length="3.49" shape="653.50,995.05 656.50,998.35"/>
    </edge>
    <edge id=":edge1:4/1:3.-45_0" function="internal">
        <lane id=":edge1:4/1:3.-45_0_0" index="0" speed="13.90" length="3.49" shape="391.75,1046.50 391.75,1043.50"/>
        <lane id=":edge1:4/1:3.-45_0_1" index="1" speed="13.90" length="3.49" shape="395.05,1046.50 395.05,1043.50"/>
        <lane id=":edge1:4/1:3.-45_0_2" index="2" speed="13.90" length="3.49" shape="395.05,1046.50 398.35,1043.50"/>
    </edge>
    <edge id=":edge2:-1/2:0.-45_0" function="internal">
        <lane id=":edge2:-1/2:0.-45_0_0" index="0" speed="13.90" length="3.49" shape="708.25,53.50 708.25,56.50"/>
        <lane id=":edge2:-1/2:0.-45_0_1" index="1" speed="13.90" length="3.49" shape="704.95,53.50 704.95,56.50"/>
        <lane id=":edge2:-1/2:0.-45_0_2" index="2" speed="13.90" length="3.49" shape="704.95,53.50 701.65,56.50"/>
    </edge>
    <edge id=":edge2:0/1:0.-45_0" function="internal">
        <lane id=":edge2:0/1:0.-45_0_0" index="0" speed="13.90" length="3.49" shape="446.50,108.25 443.50,108.25"/>
        <lane id=":edge2:0/1:0.-45_0_1" index="1" speed="13.90" length="3.49" shape="446.50,104.95 443.50,104.95"/>
        <lane id=":edge2:0/1:0.-45_0_2" index="2" speed="13.90" length="3.49" shape="446.50,104.95 443.50,101.65"/>
    </edge>
    <edge id=":edge2:0/2:-1.-45_0" function="internal">
        <lane id=":edge2:0/2:-1.-45_0_0" index="0" speed="13.90" length="3.49" shape="691.75,46.50 691.75,43.50"/>
        <lane id=":edge2:0/2:-1.-45_0_1" index="1" speed="13.90" length="3.49" shape="695.05,46.50 695.05,43.50"/>
        <lane id=":edge2:0/2:-1.-45_0_2" index="2" speed="13.90" length="3.49" shape="695.05,46.50 698.35,43.50"/>
    </edge>
    <edge id=":edge2:0/2:1.-45_0" function="internal">
        <lane id=":edge2:0/2:1.-45_0_0" index="0" speed="13.90" length="3.49" shape="708.25,353.50 708.25,356.50"/>
        <lane id=":edge2:0/2:1.-45_0_1" index="1" speed="13.90" length="3.49" shape="704.95,353.50 704.95,356.50"/>
        <lane id=":edge2:0/2:1.-45_0_2" index="2" speed="13.90" length="3.49" shape="704.95,353.50 701.65,356.50"/>
    </edge>
    <edge id=":edge2:0/3:0.-45_0" function="internal">
        <lane id=":edge2:0/3:0.-45_0_0" index="0" speed="13.90" length="3.49" shape="953.50,91.75 956.50,91.75"/>
        <lane id=":edge2:0/3:0.-45_0_1" index="1" speed="13.90" length="3.49" shape="953.50,95.05 956.50,95.05"/>
        <lane id=":edge2:0/3:0.-45_0_2" index="2" speed="13.90" length="3.49" shape="953.50,95.05 956.50,98.35"/>
    </edge>
    <edge id=":edge2:1/1:1.-45_0" function="internal">
        <lane id=":edge2:1/1:1.-45_0_0" index="0" speed="13.90" length="3.49" shape="446.50,408.25 443.50,408.25"/>
        <lane id=":edge2:1/1:1.-45_0_1" index="1" speed="13.90" length="3.49" shape="446.50,404.95 443.50,404.95"/>
        <lane id=":edge2:1/1:1.-45_0_2" index="2" speed="13.90" length="3.49" shape="446.50,404.95 443.50,401.65"/>
    </edge>
    <edge id=":edge2:1/2:0.-45_0" function="internal">
        <lane id=":edge2:1/2:0.-45_0_0" index="0" speed="13.90" length="3.49" shape="691.75,146.50 691.75,143.50"/>
        <lane id=":edge2:1/2:0.-45_0_1" index="1" speed="13.90" length="3.49" shape="695.05,146.50 695.05,143.50"/>
        <lane id=":edge2:1/2:0.-45_0_2" index="2" speed="13.90" length="3.49" shape="695.05,146.50 698.35,143.50"/>
    </edge>
    <edge id=":edge2:1/2:2.-45_0" function="internal">
        <lane id=":edge2:1/2:2.-45_0_0" index="0" speed="13.90" length="3.49" shape="708.25,653.50 708.25,656.50"/>
        <lane id=":edge2:1/2:2.-45_0_1" index="1" speed="13.90" length="3.49" shape="704.95,653.50 704.95,656.50"/>
        <lane id=":edge2:1/2:2.-45_0_2" index="2" speed="13.90" length="3.49" shape="704.95,653.50 701.65,656.50"/>
    </edge>
    <edge id=":edge2:1/3:1.-45_0" function="internal">
        <lane id=":edge2:1/3:1.-45_0_0" index="0" speed="13.90" length="3.49" shape="953.50,391.75 956.50,391.75"/>
        <lane id=":edge2:1/3:1.-45_0_1" index="1" speed="13.90" length="3.49" shape="953.50,395.05 956.50,395.05"/>
        <lane id=":edge2:1/3:1.-45_0_2" index="2" speed="13.90" length="3.49" shape="953.50,395.05 956.50,398.35"/>
    </edge>
    <edge id=":edge2:2/1:2.-45_0" function="internal">
        <lane id=":edge2:2/1:2.-45_0_0" index="0" speed="13.90" length="3.49" shape="446.50,708.25 443.50,708.25"/>
        <lane id=":edge2:2/1:2.-45_0_1" index="1" speed="13.90" length="3.49" shape="446.50,704.95 443.50,704.95"/>
        <lane id=":edge2:2/1:2.-45_0_2" index="2" speed="13.90" length="3.49" shape="446.50,704.95 443.50,701.65"/>
    </edge>
    <edge id=":edge2:2/2:1.-45_0" function="internal">
        <lane id=":edge2:2/2:1.-45_0_0" index="0" speed="13.90" length="3.49" shape="691.75,446.50 691.75,443.50"/>
        <lane id=":edge2:2/2:1.-45_0_1" index="1" speed="13.90" length="3.49" shape="695.05,446.50 695.05,443.50"/>
        <lane id=":edge2:2/2:1.-45_0_2" index="2" speed="13.90" length="3.49" shape="695.05,446.50 698.35,443.50"/>
    </edge>
    <edge id=":edge2:2/2:3.-45_0" function="internal">
        <lane id=":edge2:2/2:3.-45_0_0" index="0" speed="13.90" length="3.49" shape="708.25,953.50 708.25,956.50"/>
        <lane id=":edge2:2/2:3.-45_0_1" index="1" speed="13.90" length="3.49" shape="704.95,953.50 704.95,956.50"/>
        <lane id=":edge2:2/2:3.-45_0_2" index="2" speed="13.90" length="3.49" shape="704.95,953.50 701.65,956.50"/>
    </edge>
    <edge id=":edge2:2/3:2.-45_0" function="internal">
        <lane id=":edge2:2/3:2.-45_0_0" index="0" speed="13.90" length="3.49" shape="953.50,691.75 956.50,691.75"/>
        <lane id=":edge2:2/3:2.-45_0_1" index="1" speed="13.90" length="3.49" shape="953.50,695.05 956.50,695.05"/>
        <lane id=":edge2:2/3:2.-45_0_2" index="2" speed="13.90" length="3.49" shape="953.50,695.05 956.50,698.35"/>
    </edge>
    <edge id=":edge2:3/1:3.-45_0" function="internal">
        <lane id=":edge2:3/1:3.-45_0_0" index="0" speed="13.90" length="3.49" shape="446.50,1008.25 443.50,1008.25"/>
        <lane id=":edge2:3/1:3.-45_0_1" index="1" speed="13.90" length="3.49" shape="446.50,1004.95 443.50,1004.95"/>
        <lane id=":edge2:3/1:3.-45_0_2" index="2" speed="13.90" length="3.49" shape="446.50,1004.95 443.50,1001.65"/>
    </edge>
    <edge id=":edge2:3/2:2.-45_0" function="internal">
        <lane id=":edge2:3/2:2.-45_0_0" index="0" speed="13.90" length="3.49" shape="691.75,746.50 691.75,743.50"/>
        <lane id=":edge2:3/2:2.-45_0_1" index="1" speed="13.90" length="3.49" shape="695.05,746.50 695.05,743.50"/>
        <lane id=":edge2:3/2:2.-45_0_2" index="2" speed="13.90" length="3.49" shape="695.05,746.50 698.35,743.50"/>
    </edge>
    <edge id=":edge2:3/2:4.-45_0" function="internal">
        <lane id=":edge2:3/2:4.-45_0_0" index="0" speed="13.90" length="3.49" shape="708.25,1053.50 708.25,1056.50"/>
        <lane id=":edge2:3/2:4.-45_0_1" index="1" speed="13.90" length="3.49" shape="704.95,1053.50 704.95,1056.50"/>
        <lane id=":edge2:3/2:4.-45_0_2" index="2" speed="13.90" length="3.49" shape="704.95,1053.50 701.65,1056.50"/>
    </edge>
    <edge id=":edge2:3/3:3.-45_0" function="internal">
        <lane id=":edge2:3/3:3.-45_0_0" index="0" speed="13.90" length="3.49" shape="953.50,991.75 956.50,991.75"/>
        <lane id=":edge2:3/3:3.-45_0_1" index="1" speed="13.90" length="3.49" shape="953.50,995.05 956.50,995.05"/>
        <lane id=":edge2:3/3:3.-45_0_2" index="2" speed="13.90" length="3.49" shape="953.50,995.05 956.50,998.35"/>
    </edge>
    <edge id=":edge2:4/2:3.-45_0" function="internal">
        <lane id=":edge2:4/2:3.-45_0_0" index="0" speed="13.90" length="3.49" shape="691.75,1046.50 691.75,1043.50"/>
        <lane id=":edge2:4/2:3.-45_0_1" index="1" speed="13.90" length="3.49" shape="695.05,1046.50 695.05,1043.50"/>
        <lane id=":edge2:4/2:3.-45_0_2" index="2" speed="13.90" length="3.49" shape="695.05,1046.50 698.35,1043.50"/>
    </edge>
    <edge id=":edge3:-1/3:0.-45_0" function="internal">
        <lane id=":edge3:-1/3:0.-45_0_0" index="0" speed="13.90" length="3.49" shape="1008.25,53.50 1008.25,56.50"/>
        <lane id=":edge3:-1/3:0.-45_0_1" index="1" speed="13.90" length="3.49" shape="1004.95,53.50 1004.95,56.50"/>
        <lane id=":edge3:-1/3:0.-45_0_2" index="2" speed="13.90" length="3.49" shape="1004.95,53.50 1001.65,56.50"/>
    </edge>
    <edge id=":edge3:0/2:0.-45_0" function="internal">
        <lane id=":edge3:0/2:0.-45_0_0" index="0" speed="13.90" length="3.49" shape="746.50,108.25 743.50,108.25"/>
        <lane id=":edge3:0/2:0.-45_0_1" index="1" speed="13.90" length="3.49" shape="746.50,104.95 743.50,104.95"/>
        <lane id=":edge3:0/2:0.-45_0_2" index="2" speed="13.90" length="3.49" shape="746.50,104.95 743.50,101.65"/>
    </edge>
    <edge id=":edge3:0/3:-1.-45_0" function="internal">
        <lane id=":edge3:0/3:-1.-45_0_0" index="0" speed="13.90" length="3.49" shape="991.75,46.50 991.75,43.50"/>
        <lane id=":edge3:0/3:-1.-45_0_1" index="1" speed="13.90" length="3.49" shape="995.05,46.50 995.05,43.50"/>
        <lane id=":edge3:0/3:-1.-45_0_2" index="2" speed="13.90" length="3.49" shape="995.05,46.50 998.35,43.50"/>
    </edge>
    <edge id=":edge3:0/3:1.-45_0" function="internal">
        <lane id=":edge3:0/3:1.-45_0_0" index="0" speed="13.90" length="3.49" shape="1008.25,353.50 1008.25,356.50"/>
        <lane id=":edge3:0/3:1.-45_0_1" index="1" speed="13.90" length="3.49" shape="1004.95,353.50 1004.95,356.50"/>
        <lane id=":edge3:0/3:1.-45_0_2" index="2" speed="13.90" length="3.49" shape="1004.95,353.50 1001.65,356.50"/>
    </edge>
    <edge id=":edge3:0/4:0.-45_0" function="internal">
        <lane id=":edge3:0/4:0.-45_0_0" index="0" speed="13.90" length="3.49" shape="1053.50,91.75 1056.50,91.75"/>
        <lane id=":edge3:0/4:0.-45_0_1" index="1" speed="13.90" length="3.49" shape="1053.50,95.05 1056.50,95.05"/>
        <lane id=":edge3:0/4:0.-45_0_2" index="2" speed="13.90" length="3.49" shape="1053.50,95.05 1056.50,98.35"/>
    </edge>
    <edge id=":edge3:1/2:1.-45_0" function="internal">
        <lane id=":edge3:1/2:1.-45_0_0" index="0" speed="13.90" length="3.49" shape="746.50,408.25 743.50,408.25"/>
        <lane id=":edge3:1/2:1.-45_0_1" index="1" speed="13.90" length="3.49" shape="746.50,404.95 743.50,404.95"/>
        <lane id=":edge3:1/2:1.-45_0_2" index="2" speed="13.90" length="3.49" shape="746.50,404.95 743.50,401.65"/>
    </edge>
    <edge id=":edge3:1/3:0.-45_0" function="internal">
        <lane id=":edge3:1/3:0.-45_0_0" index="0" speed="13.90" length="3.49" shape="991.75,146.50 991.75,143.50"/>
        <lane id=":edge3:1/3:0.-45_0_1" index="1" speed="13.90" length="3.49" shape="995.05,146.50 995.05,143.50"/>
        <lane id=":edge3:1/3:0.-45_0_2" index="2" speed="13.90" length="3.49" shape="995.05,146.50 998.35,143.50"/>
    </edge>
    <edge id=":edge3:1/3:2.-45_0" function="internal">
        <lane id=":edge3:1/3:2.-45_0_0" index="0" speed="13.90" length="3.49" shape="1008.25,653.50 1008.25,656.50"/>
        <lane id=":edge3:1/3:2.-45_0_1" index="1" speed="13.90" length="3.49" shape="1004.95,653.50 1004.95,656.50"/>
        <lane id=":edge3:1/3:2.-45_0_2" index="2" speed="13.90" length="3.49" shape="1004.95,653.50 1001.65,656.50"/>
    </edge>
    <edge id=":edge3:1/4:1.-45_0" function="internal">
        <lane id=":edge3:1/4:1.-45_0_0" index="0" speed="13.90" length="3.49" shape="1053.50,391.75 1056.50,391.75"/>
        <lane id=":edge3:1/4:1.-45_0_1" index="1" speed="13.90" length="3.49" shape="1053.50,395.05 1056.50,395.05"/>
        <lane id=":edge3:1/4:1.-45_0_2" index="2" speed="13.90" length="3.49" shape="1053.50,395.05 1056.50,398.35"/>
    </edge>
    <edge id=":edge3:2/2:2.-45_0" function="internal">
        <lane id=":edge3:2/2:2.-45_0_0" index="0" speed="13.90" length="3.49" shape="746.50,708.25 743.50,708.25"/>
        <lane id=":edge3:2/2:2.-45_0_1" index="1" speed="13.90" length="3.49" shape="746.50,704.95 743.50,704.95"/>
        <lane id=":edge3:2/2:2.-45_0_2" index="2" speed="13.90" length="3.49" shape="746.50,704.95 743.50,701.65"/>
    </edge>
    <edge id=":edge3:2/3:1.-45_0" function="internal">
        <lane id=":edge3:2/3:1.-45_0_0" index="0" speed="13.90" length="3.49" shape="991.75,446.50 991.75,443.50"/>
        <lane id=":edge3:2/3:1.-45_0_1" index="1" speed="13.90" length="3.49" shape="995.05,446.50 995.05,443.50"/>
        <lane id=":edge3:2/3:1.-45_0_2" index="2" speed="13.90" length="3.49" shape="995.05,446.50 998.35,443.50"/>
    </edge>
    <edge id=":edge3:2/3:3.-45_0" function="internal">
        <lane id=":edge3:2/3:3.-45_0_0" index="0" speed="13.90" length="3.49" shape="1008.25,953.50 1008.25,956.50"/>
        <lane id=":edge3:2/3:3.-45_0_1" index="1" speed="13.90" length="3.49" shape="1004.95,953.50 1004.95,956.50"/>
        <lane id=":edge3:2/3:3.-45_0_2" index="2" speed="13.90" length="3.49" shape="1004.95,953.50 1001.65,956.50"/>
    </edge>
    <edge id=":edge3:2/4:2.-45_0" function="internal">