<?xml version="1.0" encoding="UTF-8"?>

<!-- generated on 04/24/18 01:28:59 by SUMO jtrrouter Version 0.31.0
<?xml version="1.0" encoding="UTF-8"?>

<configuration xmlns:xsi="http://www.w3.org/2001/XMLSchema-instance" xsi:noNamespaceSchemaLocation="http://sumo.dlr.de/xsd/jtrrouterConfiguration.xsd">

    <input>
        <net-file value=".\grid.net.xml"/>
        <route-files value=".\grid.sc2.jtr.flows.xml"/>
    </input>

    <output>
        <output-file value=".\grid.scenario2.rou.xml"/>
    </output>

    <processing>
        <turn-defaults value="10,80,10"/>
        <sink-edges value="edge0:0/-1:0,edge0:1/-1:1,edge0:2/-1:2,edge0:3/-1:3,edge3:0/4:0,edge3:1/4:1,edge3:2/4:2,edge3:3/4:3,edge0:3/0:4,edge1:3/1:4,edge2:3/2:4,edge3:3/3:4,edge0:0/0:-1,edge1:0/1:-1,edge2:0/2:-1,edge3:0/3:-1"/>
    </processing>

    <time>
        <end value="3600"/>
    </time>

</configuration>
-->

<routes xmlns:xsi="http://www.w3.org/2001/XMLSchema-instance" xsi:noNamespaceSchemaLocation="http://sumo.dlr.de/xsd/routes_file.xsd">
    <vehicle id="E1.0" depart="0.00">
        <route edges="edge-1:0/0:0 edge-1:0/0:0.-45 edge0:0/1:0 edge0:0/1:0.-45 edge1:0/2:0 edge1:0/2:0.-45 edge2:0/2:-1"/>
    </vehicle>
    <vehicle id="E2.0" depart="0.00">
        <route edges="edge-1:1/0:1 edge-1:1/0:1.-45 edge0:1/1:1 edge0:1/1:1.-45 edge1:1/2:1 edge1:1/2:1.-45 edge2:1/3:1 edge2:1/3:1.-45 edge3:1/4:1"/>
    </vehicle>
    <vehicle id="E3.0" depart="0.00">
        <route edges="edge-1:2/0:2 edge-1:2/0:2.-45 edge0:2/1:2 edge0:2/1:2.-45 edge1:2/2:2 edge1:2/2:2.-45 edge2:2/3:2 edge2:2/3:2.-45 edge3:2/4:2"/>
    </vehicle>
    <vehicle id="E4.0" depart="0.00">
        <route edges="edge-1:3/0:3 edge-1:3/0:3.-45 edge0:3/1:3 edge0:3/1:3.-45 edge1:3/2:3 edge1:3/2:3.-45 edge2:3/3:3 edge2:3/3:3.-45 edge3:3/4:3"/>
    </vehicle>
    <vehicle id="N1.0" depart="0.00">
        <route edges="edge0:4/0:3 edge0:4/0:3.-45 edge0:3/0:2 edge0:3/0:2.-45 edge0:2/0:1 edge0:2/0:1.-45 edge0:1/-1:1"/>
    </vehicle>
    <vehicle id="N2.0" depart="0.00">
        <route edges="edge1:4/1:3 edge1:4/1:3.-45 edge1:3/1:2 edge1:3/1:2.-45 edge1:2/1:1 edge1:2/1:1.-45 edge1:1/2:1 edge1:1/2:1.-45 edge2:1/3:1 edge2:1/3:1.-45 edge3:1/4:1"/>
    </vehicle>
    <vehicle id="N3.0" depart="0.00">
        <route edges="edge2:4/2:3 edge2:4/2:3.-45 edge2:3/2:2 edge2:3/2:2.-45 edge2:2/2:1 edge2:2/2:1.-45 edge2:1/2:0 edge2:1/2:0.-45 edge2:0/3:0 edge2:0/3:0.-45 edge3:0/4:0"/>
    </vehicle>
    <vehicle id="N4.0" depart="0.00">
        <route edges="edge3:4/3:3 edge3:4/3:3.-45 edge3:3/3:2 edge3:3/3:2.-45 edge3:2/4:2"/>
    </vehicle>
    <vehicle id="S1.0" depart="0.00">
        <route edges="edge0:-1/0:0 edge0:-1/0:0.-45 edge0:0/0:1 edge0:0/0:1.-45 edge0:1/1:1 edge0:1/1:1.-45 edge1:1/2:1 edge1:1/2:1.-45 edge2:1/2:0 edge2:1/2:0.-45 edge2:0/3:0 edge2:0/3:0.-45 edge3:0/4:0"/>
    </vehicle>
    <vehicle id="S2.0" depart="0.00">
        <route edges="edge1:-1/1:0 edge1:-1/1:0.-45 edge1:0/1:1 edge1:0/1:1.-45 edge1:1/1:2 edge1:1/1:2.-45 edge1:2/2:2 edge1:2/2:2.-45 edge2:2/3:2 edge2:2/3:2.-45 edge3:2/4:2"/>
    </vehicle>
    <vehicle id="S3.0" depart="0.00">
        <route edges="edge2:-1/2:0 edge2:-1/2:0.-45 edge2:0/2:1 edge2:0/2:1.-45 edge2:1/2:2 edge2:1/2:2.-45 edge2:2/2:3 edge2:2/2:3.-45 edge2:3/2:4"/>
    </vehicle>
    <vehicle id="S4.0" depart="0.00">
        <route edges="edge3:-1/3:0 edge3:-1/3:0.-45 edge3:0/2:0 edge3:0/2:0.-45 edge2:0/1:0 edge2:0/1:0.-45 edge1:0/0:0 edge1:0/0:0.-45 edge0:0/0:-1"/>
    </vehicle>
    <vehicle id="W1.0" depart="0.00">
        <route edges="edge4:0/3:0 edge4:0/3:0.-45 edge3:0/2:0 edge3:0/2:0.-45 edge2:0/1:0 edge2:0/1:0.-45 edge1:0/0:0 edge1:0/0:0.-45 edge0:0/-1:0"/>
    </vehicle>
    <vehicle id="W2.0" depart="0.00">
        <route edges="edge4:1/3:1 edge4:1/3:1.-45 edge3:1/2:1 edge3:1/2:1.-45 edge2:1/1:1 edge2:1/1:1.-45 edge1:1/0:1 edge1:1/0:1.-45 edge0:1/-1:1"/>
    </vehicle>
    <vehicle id="W3.0" depart="0.00">
        <route edges="edge4:2/3:2 edge4:2/3:2.-45 edge3:2/2:2 edge3:2/2:2.-45 edge2:2/1:2 edge2:2/1:2.-45 edge1:2/0:2 edge1:2/0:2.-45 edge0:2/0:3 edge0:2/0:3.-45 edge0:3/0:4"/>
    </vehicle>
    <vehicle id="W4.0" depart="0.00">
        <route edges="edge4:3/3:3 edge4:3/3:3.-45 edge3:3/2:3 edge3:3/2:3.-45 edge2:3/2:2 edge2:3/2:2.-45 edge2:2/2:1 edge2:2/2:1.-45 edge2:1/2:0 edge2:1/2:0.-45 edge2:0/2:-1"/>
    </vehicle>
    <vehicle id="E1.1" depart="6.00">
        <route edges="edge-1:0/0:0 edge-1:0/0:0.-45 edge0:0/1:0 edge0:0/1:0.-45 edge1:0/2:0 edge1:0/2:0.-45 edge2:0/3:0 edge2:0/3:0.-45 edge3:0/3:1 edge3:0/3:1.-45 edge3:1/4:1"/>
    </vehicle>
    <vehicle id="E2.1" depart="6.00">
        <route edges="edge-1:1/0:1 edge-1:1/0:1.-45 edge0:1/1:1 edge0:1/1:1.-45 edge1:1/1:2 edge1:1/1:2.-45 edge1:2/1:3 edge1:2/1:3.-45 edge1:3/1:4"/>
    </vehicle>
    <vehicle id="E3.1" depart="6.00">
        <route edges="edge-1:2/0:2 edge-1:2/0:2.-45 edge0:2/0:1 edge0:2/0:1.-45 edge0:1/1:1 edge0:1/1:1.-45 edge1:1/2:1 edge1:1/2:1.-45 edge2:1/3:1 edge2:1/3:1.-45 edge3:1/4:1"/>
    </vehicle>
    <vehicle id="E4.1" depart="6.00">
        <route edges="edge-1:3/0:3 edge-1:3/0:3.-45 edge0:3/1:3 edge0:3/1:3.-45 edge1:3/2:3 edge1:3/2:3.-45 edge2:3/3:3 edge2:3/3:3.-45 edge3:3/4:3"/>
    </vehicle>
    <vehicle id="W1.1" depart="6.00">
        <route edges="edge4:0/3:0 edge4:0/3:0.-45 edge3:0/2:0 edge3:0/2:0.-45 edge2:0/1:0 edge2:0/1:0.-45 edge1:0/0:0 edge1:0/0:0.-45 edge0:0/-1:0"/>
    </vehicle>
    <vehicle id="W2.1" depart="6.00">
        <route edges="edge4:1/3:1 edge4:1/3:1.-45 edge3:1/2:1 edge3:1/2:1.-45 edge2:1/1:1 edge2:1/1:1.-45 edge1:1/0:1 edge1:1/0:1.-45 edge0:1/-1:1"/>
    </vehicle>
    <vehicle id="W3.1" depart="6.00">
        <route edges="edge4:2/3:2 edge4:2/3:2.-45 edge3:2/2:2 edge3:2/2:2.-45 edge2:2/1:2 edge2:2/1:2.-45 edge1:2/0:2 edge1:2/0:2.-45 edge0:2/-1:2"/>
    </vehicle>
    <vehicle id="W4.1" depart="6.00">
        <route edges="edge4:3/3:3 edge4:3/3:3.-45 edge3:3/3:2 edge3:3/3:2.-45 edge3:2/4:2"/>
    </vehicle>
    <vehicle id="E1.2" depart="12.00">
        <route edges="edge-1:0/0:0 edge-1:0/0:0.-45 edge0:0/1:0 edge0:0/1:0.-45 edge1:0/1:-1"/>
    </vehicle>
    <vehicle id="E2.2" depart="12.00">
        <route edges="edge-1:1/0:1 edge-1:1/0:1.-45 edge0:1/0:0 edge0:1/0:0.-45 edge0:0/0:-1"/>
    </vehicle>
    <vehicle id="E3.2" depart="12.00">
        <route edges="edge-1:2/0:2 edge-1:2/0:2.-45 edge0:2/1:2 edge0:2/1:2.-45 edge1:2/1:1 edge1:2/1:1.-45 edge1:1/0:1 edge1:1/0:1.-45 edge0:1/-1:1"/>
    </vehicle>
    <vehicle id="E4.2" depart="12.00">
        <route edges="edge-1:3/0:3 edge-1:3/0:3.-45 edge0:3/1:3 edge0:3/1:3.-45 edge1:3/1:4"/>
    </vehicle>
    <vehicle id="N1.1" depart="12.00">
        <route edges="edge0:4/0:3 edge0:4/0:3.-45 edge0:3/0:2 edge0:3/0:2.-45 edge0:2/-1:2"/>
    </vehicle>
    <vehicle id="N2.1" depart="12.00">
        <route edges="edge1:4/1:3 edge1:4/1:3.-45 edge1:3/1:2 edge1:3/1:2.-45 edge1:2/2:2 edge1:2/2:2.-45 edge2:2/3:2 edge2:2/3:2.-45 edge3:2/4:2"/>
    </vehicle>
    <vehicle id="N3.1" depart="12.00">
        <route edges="edge2:4/2:3 edge2:4/2:3.-45 edge2:3/2:2 edge2:3/2:2.-45 edge2:2/2:1 edge2:2/2:1.-45 edge2:1/2:0 edge2:1/2:0.-45 edge2:0/2:-1"/>
    </vehicle>
    <vehicle id="N4.1" depart="12.00">
        <route edges="edge3:4/3:3 edge3:4/3:3.-45 edge3:3/3:2 edge3:3/3:2.-45 edge3:2/3:1 edge3:2/3:1.-45 edge3:1/2:1 edge3:1/2:1.-45 edge2:1/2:2 edge2:1/2:2.-45 edge2:2/2:3 edge2:2/2:3.-45 edge2:3/2:4"/>
    </vehicle>
    <vehicle id="S1.1" depart="12.00">
        <route edges="edge0:-1/0:0 edge0:-1/0:0.-45 edge0:0/0:1 edge0:0/0:1.-45 edge0:1/0:2 edge0:1/0:2.-45 edge0:2/0:3 edge0:2/0:3.-45 edge0:3/0:4"/>
    </vehicle>
    <vehicle id="S2.1" depart="12.00">
        <route edges="edge1:-1/1:0 edge1:-1/1:0.-45 edge1:0/1:1 edge1:0/1:1.-45 edge1:1/1:2 edge1:1/1:2.-45 edge1:2/1:3 edge1:2/1:3.-45 edge1:3/1:4"/>
    </vehicle>
    <vehicle id="S3.1" depart="12.00">
        <route edges="edge2:-1/2:0 edge2:-1/2:0.-45 edge2:0/2:1 edge2:0/2:1.-45 edge2:1/2:2 edge2:1/2:2.-45 edge2:2/3:2 edge2:2/3:2.-45 edge3:2/4:2"/>
    </vehicle>
    <vehicle id="S4.1" depart="12.00">
        <route edges="edge3:-1/3:0 edge3:-1/3:0.-45 edge3:0/3:1 edge3:0/3:1.-45 edge3:1/3:2 edge3:1/3:2.-45 edge3:2/3:3 edge3:2/3:3.-45 edge3:3/3:4"/>
    </vehicle>
    <vehicle id="W1.2" depart="12.00">
        <route edges="edge4:0/3:0 edge4:0/3:0.-45 edge3:0/2:0 edge3:0/2:0.-45 edge2:0/1:0 edge2:0/1:0.-45 edge1:0/0:0 edge1:0/0:0.-45 edge0:0/-1:0"/>
    </vehicle>
    <vehicle id="W2.2" depart="12.00">
        <route edges="edge4:1/3:1 edge4:1/3:1.-45 edge3:1/2:1 edge3:1/2:1.-45 edge2:1/1:1 edge2:1/1:1.-45 edge1:1/1:0 edge1:1/1:0.-45 edge1:0/1:-1"/>
    </vehicle>
    <vehicle id="W3.2" depart="12.00">
        <route edges="edge4:2/3:2 edge4:2/3:2.-45 edge3:2/3:1 edge3:2/3:1.-45 edge3:1/3:0 edge3:1/3:0.-45 edge3:0/2:0 edge3:0/2:0.-45 edge2:0/2:-1"/>
    </vehicle>
    <vehicle id="W4.2" depart="12.00">
        <route edges="edge4:3/3:3 edge4:3/3:3.-45 edge3:3/2:3 edge3:3/2:3.-45 edge2:3/1:3 edge2:3/1:3.-45 edge1:3/1:4"/>
    </vehicle>
    <vehicle id="E1.3" depart="18.00">
        <route edges="edge-1:0/0:0 edge-1:0/0:0.-45 edge0:0/1:0 edge0:0/1:0.-45 edge1:0/1:-1"/>
    </vehicle>
    <vehicle id="E2.3" depart="18.00">
        <route edges="edge-1:1/0:1 edge-1:1/0:1.-45 edge0:1/1:1 edge0:1/1:1.-45 edge1:1/2:1 edge1:1/2:1.-45 edge2:1/3:1 edge2:1/3:1.-45 edge3:1/4:1"/>
    </vehicle>
    <vehicle id="E3.3" depart="18.00">
        <route edges="edge-1:2/0:2 edge-1:2/0:2.-45 edge0:2/1:2 edge0:2/1:2.-45 edge1:2/2:2 edge1:2/2:2.-45 edge2:2/3:2 edge2:2/3:2.-45 edge3:2/4:2"/>
    </vehicle>
    <vehicle id="E4.3" depart="18.00">
        <route edges="edge-1:3/0:3 edge-1:3/0:3.-45 edge0:3/1:3 edge0:3/1:3.-45 edge1:3/1:2 edge1:3/1:2.-45 edge1:2/1:1 edge1:2/1:1.-45 edge1:1/1:0 edge1:1/1:0.-45 edge1:0/2:0 edge1:0/2:0.-45 edge2:0/3:0 edge2:0/3:0.-45 edge3:0/4:0"/>
    </vehicle>
    <vehicle id="W1.3" depart="18.00">
        <route edges="edge4:0/3:0 edge4:0/3:0.-45 edge3:0/2:0 edge3:0/2:0.-45 edge2:0/1:0 edge2:0/1:0.-45 edge1:0/0:0 edge1:0/0:0.-45 edge0:0/0:-1"/>
    </vehicle>
    <vehicle id="W2.3" depart="18.00">
        <route edges="edge4:1/3:1 edge4:1/3:1.-45 edge3:1/2:1 edge3:1/2:1.-45 edge2:1/2:0 edge2:1/2:0.-45 edge2:0/2:-1"/>
    </vehicle>
    <vehicle id="W3.3" depart="18.00">
        <route edges="edge4:2/3:2 edge4:2/3:2.-45 edge3:2/3:3 edge3:2/3:3.-45 edge3:3/3:4"/>
    </vehicle>
    <vehicle id="W4.3" depart="18.00">
        <route edges="edge4:3/3:3 edge4:3/3:3.-45 edge3:3/2:3 edge3:3/2:3.-45 edge2:3/1:3 edge2:3/1:3.-45 edge1:3/1:4"/>
    </vehicle>
    <vehicle id="E1.4" depart="24.00">
        <route edges="edge-1:0/0:0 edge-1:0/0:0.-45 edge0:0/1:0 edge0:0/1:0.-45 edge1:0/1:-1"/>
    </vehicle>
    <vehicle id="E2.4" depart="24.00">
        <route edges="edge-1:1/0:1 edge-1:1/0:1.-45 edge0:1/0:0 edge0:1/0:0.-45 edge0:0/1:0 edge0:0/1:0.-45 edge1:0/2:0 edge1:0/2:0.-45 edge2:0/3:0 edge2:0/3:0.-45 edge3:0/4:0"/>
    </vehicle>
    <vehicle id="E3.4" depart="24.00">
        <route edges="edge-1:2/0:2 edge-1:2/0:2.-45 edge0:2/1:2 edge0:2/1:2.-45 edge1:2/2:2 edge1:2/2:2.-45 edge2:2/3:2 edge2:2/3:2.-45 edge3:2/4:2"/>
    </vehicle>
    <vehicle id="E4.4" depart="24.00">
        <route edges="edge-1:3/0:3 edge-1:3/0:3.-45 edge0:3/0:4"/>
    </vehicle>
    <vehicle id="N1.2" depart="24.00">
        <route edges="edge0:4/0:3 edge0:4/0:3.-45 edge0:3/0:2 edge0:3/0:2.-45 edge0:2/1:2 edge0:2/1:2.-45 edge1:2/2:2 edge1:2/2:2.-45 edge2:2/3:2 edge2:2/3:2.-45 edge3:2/4:2"/>
    </vehicle>
    <vehicle id="N2.2" depart="24.00">
        <route edges="edge1:4/1:3 edge1:4/1:3.-45 edge1:3/1:2 edge1:3/1:2.-45 edge1:2/1:1 edge1:2/1:1.-45 edge1:1/1:0 edge1:1/1:0.-45 edge1:0/1:-1"/>
    </vehicle>
    <vehicle id="N3.2" depart="24.00">
        <route edges="edge2:4/2:3 edge2:4/2:3.-45 edge2:3/2:2 edge2:3/2:2.-45 edge2:2/2:1 edge2:2/2:1.-45 edge2:1/2:0 edge2:1/2:0.-45 edge2:0/2:-1"/>
    </vehicle>
    <vehicle id="N4.2" depart="24.00">
        <route edges="edge3:4/3:3 edge3:4/3:3.-45 edge3:3/3:2 edge3:3/3:2.-45 edge3:2/2:2 edge3:2/2:2.-45 edge2:2/1:2 edge2:2/1:2.-45 edge1:2/0:2 edge1:2/0:2.-45 edge0:2/-1:2"/>
    </vehicle>
    <vehicle id="S1.2" depart="24.00">
        <route edges="edge0:-1/0:0 edge0:-1/0:0.-45 edge0:0/0:1 edge0:0/0:1.-45 edge0:1/0:2 edge0:1/0:2.-45 edge0:2/0:3 edge0:2/0:3.-45 edge0:3/0:4"/>
    </vehicle>
    <vehicle id="S2.2" depart="24.00">
        <route edges="edge1:-1/1:0 edge1:-1/1:0.-45 edge1:0/1:1 edge1:0/1:1.-45 edge1:1/1:2 edge1:1/1:2.-45 edge1:2/1:3 edge1:2/1:3.-45 edge1:3/1:4"/>
    </vehicle>
    <vehicle id="S3.2" depart="24.00">
        <route edges="edge2:-1/2:0 edge2:-1/2:0.-45 edge2:0/2:1 edge2:0/2:1.-45 edge2:1/2:2 edge2:1/2:2.-45 edge2:2/2:3 edge2:2/2:3.-45 edge2:3/2:4"/>
    </vehicle>
    <vehicle id="S4.2" depart="24.00">
        <route edges="edge3:-1/3:0 edge3:-1/3:0.-45 edge3:0/3:1 edge3:0/3:1.-45 edge3:1/3:2 edge3:1/3:2.-45 edge3:2/3:3 edge3:2/3:3.-45 edge3:3/3:4"/>
    </vehicle>
    <vehicle id="W1.4" depart="24.00">
        <route edges="edge4:0/3:0 edge4:0/3:0.-45 edge3:0/2:0 edge3:0/2:0.-45 edge2:0/2:1 edge2:0/2:1.-45 edge2:1/2:2 edge2:1/2:2.-45 edge2:2/1:2 edge2:2/1:2.-45 edge1:2/0:2 edge1:2/0:2.-45 edge0:2/0:3 edge0:2/0:3.-45 edge0:3/0:4"/>
    </vehicle>
    <vehicle id="W2.4" depart="24.00">
        <route edges="edge4:1/3:1 edge4:1/3:1.-45 edge3:1/3:0 edge3:1/3:0.-45 edge3:0/3:-1"/>
    </vehicle>
    <vehicle id="W3.4" depart="24.00">
        <route edges="edge4:2/3:2 edge4:2/3:2.-45 edge3:2/3:3 edge3:2/3:3.-45 edge3:3/3:4"/>
    </vehicle>
    <vehicle id="W4.4" depart="24.00">
        <route edges="edge4:3/3:3 edge4:3/3:3.-45 edge3:3/2:3 edge3:3/2:3.-45 edge2:3/1:3 edge2:3/1:3.-45 edge1:3/0:3 edge1:3/0:3.-45 edge0:3/-1:3"/>
    </vehicle>
    <vehicle id="E1.5" depart="30.00">
        <route edges="edge-1:0/0:0 edge-1:0/0:0.-45 edge0:0/1:0 edge0:0/1:0.-45 edge1:0/1:-1"/>
    </vehicle>
    <vehicle id="E2.5" depart="30.00">
        <route edges="edge-1:1/0:1 edge-1:1/0:1.-45 edge0:1/1:1 edge0:1/1:1.-45 edge1:1/2:1 edge1:1/2:1.-45 edge2:1/3:1 edge2:1/3:1.-45 edge3:1/4:1"/>
    </vehicle>
    <vehicle id="E3.5" depart="30.00">
        <route edges="edge-1:2/0:2 edge-1:2/0:2.-45 edge0:2/1:2 edge0:2/1:2.-45 edge1:2/2:2 edge1:2/2:2.-45 edge2:2/3:2 edge2:2/3:2.-45 edge3:2/4:2"/>
    </vehicle>
    <vehicle id="E4.5" depart="30.00">
        <route edges="edge-1:3/0:3 edge-1:3/0:3.-45 edge0:3/1:3 edge0:3/1:3.-45 edge1:3/2:3 edge1:3/2:3.-45 edge2:3/3:3 edge2:3/3:3.-45 edge3:3/4:3"/>
    </vehicle>
    <vehicle id="W1.5" depart="30.00">
        <route edges="edge4:0/3:0 edge4:0/3:0.-45 edge3:0/2:0 edge3:0/2:0.-45 edge2:0/1:0 edge2:0/1:0.-45 edge1:0/0:0 edge1:0/0:0.-45 edge0:0/-1:0"/>
    </vehicle>
    <vehicle id="W2.5" depart="30.00">
        <route edges="edge4:1/3:1 edge4:1/3:1.-45 edge3:1/3:0 edge3:1/3:0.-45 edge3:0/3:-1"/>
    </vehicle>
    <vehicle id="W3.5" depart="30.00">
        <route edges="edge4:2/3:2 edge4:2/3:2.-45 edge3:2/2:2 edge3:2/2:2.-45 edge2:2/1:2 edge2:2/1:2.-45 edge1:2/0:2 edge1:2/0:2.-45 edge0:2/0:3 edge0:2/0:3.-45 edge0:3/0:4"/>
    </vehicle>
    <vehicle id="W4.5" depart="30.00">
        <route edges="edge4:3/3:3 edge4:3/3:3.-45 edge3:3/2:3 edge3:3/2:3.-45 edge2:3/1:3 edge2:3/1:3.-45 edge1:3/0:3 edge1:3/0:3.-45 edge0:3/-1:3"/>
    </vehicle>
    <vehicle id="E1.6" depart="36.00">
        <route edges="edge-1:0/0:0 edge-1:0/0:0.-45 edge0:0/1:0 edge0:0/1:0.-45 edge1:0/1:1 edge1:0/1:1.-45 edge1:1/1:2 edge1:1/1:2.-45 edge1:2/1:3 edge1:2/1:3.-45 edge1:3/1:4"/>
    </vehicle>
    <vehicle id="E2.6" depart="36.00">
        <route edges="edge-1:1/0:1 edge-1:1/0:1.-45 edge0:1/0:0 edge0:1/0:0.-45 edge0:0/1:0 edge0:0/1:0.-45 edge1:0/2:0 edge1:0/2:0.-45 edge2:0/3:0 edge2:0/3:0.-45 edge3:0/4:0"/>
    </vehicle>
    <vehicle id="E3.6" depart="36.00">
        <route edges="edge-1:2/0:2 edge-1:2/0:2.-45 edge0:2/1:2 edge0:2/1:2.-45 edge1:2/2:2 edge1:2/2:2.-45 edge2:2/3:2 edge2:2/3:2.-45 edge3:2/4:2"/>
    </vehicle>
    <vehicle id="E4.6" depart="36.00">
        <route edges="edge-1:3/0:3 edge-1:3/0:3.-45 edge0:3/1:3 edge0:3/1:3.-45 edge1:3/1:4"/>
    </vehicle>
    <vehicle id="N1.3" depart="36.00">
        <route edges="edge0:4/0:3 edge0:4/0:3.-45 edge0:3/0:2 edge0:3/0:2.-45 edge0:2/1:2 edge0:2/1:2.-45 edge1:2/2:2 edge1:2/2:2.-45 edge2:2/3:2 edge2:2/3:2.-45 edge3:2/4:2"/>
    </vehicle>
    <vehicle id="N2.3" depart="36.00">
        <route edges="edge1:4/1:3 edge1:4/1:3.-45 edge1:3/0:3 edge1:3/0:3.-45 edge0:3/0:4"/>
    </vehicle>
    <vehicle id="N3.3" depart="36.00">
        <route edges="edge2:4/2:3 edge2:4/2:3.-45 edge2:3/2:2 edge2:3/2:2.-45 edge2:2/2:1 edge2:2/2:1.-45 edge2:1/2:0 edge2:1/2:0.-45 edge2:0/1:0 edge2:0/1:0.-45 edge1:0/0:0 edge1:0/0:0.-45 edge0:0/-1:0"/>
    </vehicle>
    <vehicle id="N4.3" depart="36.00">
        <route edges="edge3:4/3:3 edge3:4/3:3.-45 edge3:3/4:3"/>
    </vehicle>
    <vehicle id="S1.3" depart="36.00">
        <route edges="edge0:-1/0:0 edge0:-1/0:0.-45 edge0:0/0:1 edge0:0/0:1.-45 edge0:1/1:1 edge0:1/1:1.-45 edge1:1/2:1 edge1:1/2:1.-45 edge2:1/3:1 edge2:1/3:1.-45 edge3:1/4:1"/>
    </vehicle>
    <vehicle id="S2.3" depart="36.00">
        <route edges="edge1:-1/1:0 edge1:-1/1:0.-45 edge1:0/1:1 edge1:0/1:1.-45 edge1:1/0:1 edge1:1/0:1.-45 edge0:1/-1:1"/>
    </vehicle>
    <vehicle id="S3.3" depart="36.00">
        <route edges="edge2:-1/2:0 edge2:-1/2:0.-45 edge2:0/2:1 edge2:0/2:1.-45 edge2:1/2:2 edge2:1/2:2.-45 edge2:2/2:3 edge2:2/2:3.-45 edge2:3/1:3 edge2:3/1:3.-45 edge1:3/0:3 edge1:3/0:3.-45 edge0:3/-1:3"/>
    </vehicle>
    <vehicle id="S4.3" depart="36.00">
        <route edges="edge3:-1/3:0 edge3:-1/3:0.-45 edge3:0/3:1 edge3:0/3:1.-45 edge3:1/3:2 edge3:1/3:2.-45 edge3:2/3:3 edge3:2/3:3.-45 edge3:3/4:3"/>
    </vehicle>
    <vehicle id="W1.6" depart="36.00">
        <route edges="edge4:0/3:0 edge4:0/3:0.-45 edge3:0/2:0 edge3:0/2:0.-45 edge2:0/1:0 edge2:0/1:0.-45 edge1:0/0:0 edge1:0/0:0.-45 edge0:0/-1:0"/>
    </vehicle>
    <vehicle id="W2.6" depart="36.00">
        <route edges="edge4:1/3:1 edge4:1/3:1.-45 edge3:1/3:2 edge3:1/3:2.-45 edge3:2/3:3 edge3:2/3:3.-45 edge3:3/3:4"/>
    </vehicle>
    <vehicle id="W3.6" depart="36.00">
        <route edges="edge4:2/3:2 edge4:2/3:2.-45 edge3:2/2:2 edge3:2/2:2.-45 edge2:2/2:1 edge2:2/2:1.-45 edge2:1/2:0 edge2:1/2:0.-45 edge2:0/2:-1"/>
    </vehicle>
    <vehicle id="W4.6" depart="36.00">
        <route edges="edge4:3/3:3 edge4:3/3:3.-45 edge3:3/2:3 edge3:3/2:3.-45 edge2:3/1:3 edge2:3/1:3.-45 edge1:3/0:3 edge1:3/0:3.-45 edge0:3/-1:3"/>
    </vehicle>
    <vehicle id="E1.7" depart="42.00">
        <route edges="edge-1:0/0:0 edge-1:0/0:0.-45 edge0:0/1:0 edge0:0/1:0.-45 edge1:0/2:0 edge1:0/2:0.-45 edge2:0/3:0 edge2:0/3:0.-45 edge3:0/4:0"/>
    </vehicle>
    <vehicle id="E2.7" depart="42.00">
        <route edges="edge-1:1/0:1 edge-1:1/0:1.-45 edge0:1/1:1 edge0:1/1:1.-45 edge1:1/1:2 edge1:1/1:2.-45 edge1:2/1:3 edge1:2/1:3.-45 edge1:3/1:4"/>
    </vehicle>
    <vehicle id="E3.7" depart="42.00">
        <route edges="edge-1:2/0:2 edge-1:2/0:2.-45 edge0:2/1:2 edge0:2/1:2.-45 edge1:2/2:2 edge1:2/2:2.-45 edge2:2/3:2 edge2:2/3:2.-45 edge3:2/4:2"/>
    </vehicle>
    <vehicle id="E4.7" depart="42.00">
        <route edges="edge-1:3/0:3 edge-1:3/0:3.-45 edge0:3/1:3 edge0:3/1:3.-45 edge1:3/2:3 edge1:3/2:3.-45 edge2:3/3:3 edge2:3/3:3.-45 edge3:3/4:3"/>
    </vehicle>
    <vehicle id="W1.7" depart="42.00">
        <route edges="edge4:0/3:0 edge4:0/3:0.-45 edge3:0/2:0 edge3:0/2:0.-45 edge2:0/1:0 edge2:0/1:0.-45 edge1:0/0:0 edge1:0/0:0.-45 edge0:0/-1:0"/>
    </vehicle>
    <vehicle id="W2.7" depart="42.00">
        <route edges="edge4:1/3:1 edge4:1/3:1.-45 edge3:1/2:1 edge3:1/2:1.-45 edge2:1/2:2 edge2:1/2:2.-45 edge2:2/2:3 edge2:2/2:3.-45 edge2:3/2:4"/>
    </vehicle>
    <vehicle id="W3.7" depart="42.00">
        <route edges="edge4:2/3:2 edge4:2/3:2.-45 edge3:2/2:2 edge3:2/2:2.-45 edge2:2/1:2 edge2:2/1:2.-45 edge1:2/0:2 edge1:2/0:2.-45 edge0:2/0:3 edge0:2/0:3.-45 edge0:3/0:4"/>
    </vehicle>
    <vehicle id="W4.7" depart="42.00">
        <route edges="edge4:3/3:3 edge4:3/3:3.-45 edge3:3/2:3 edge3:3/2:3.-45 edge2:3/2:4"/>
    </vehicle>
    <vehicle id="E1.8" depart="48.00">
        <route edges="edge-1:0/0:0 edge-1:0/0:0.-45 edge0:0/1:0 edge0:0/1:0.-45 edge1:0/2:0 edge1:0/2:0.-45 edge2:0/3:0 edge2:0/3:0.-45 edge3:0/3:-1"/>
    </vehicle>
    <vehicle id="E2.8" depart="48.00">
        <route edges="edge-1:1/0:1 edge-1:1/0:1.-45 edge0:1/1:1 edge0:1/1:1.-45 edge1:1/1:2 edge1:1/1:2.-45 edge1:2/1:3 edge1:2/1:3.-45 edge1:3/1:4"/>
    </vehicle>
    <vehicle id="E3.8" depart="48.00">
        <route edges="edge-1:2/0:2 edge-1:2/0:2.-45 edge0:2/1:2 edge0:2/1:2.-45 edge1:2/2:2 edge1:2/2:2.-45 edge2:2/3:2 edge2:2/3:2.-45 edge3:2/3:3 edge3:2/3:3.-45 edge3:3/3:4"/>
    </vehicle>
    <vehicle id="E4.8" depart="48.00">
        <route edges="edge-1:3/0:3 edge-1:3/0:3.-45 edge0:3/1:3 edge0:3/1:3.-45 edge1:3/2:3 edge1:3/2:3.-45 edge2:3/2:2 edge2:3/2:2.-45 edge2:2/2:1 edge2:2/2:1.-45 edge2:1/2:0 edge2:1/2:0.-45 edge2:0/2:-1"/>
    </vehicle>
    <vehicle id="N1.4" depart="48.00">
        <route edges="edge0:4/0:3 edge0:4/0:3.-45 edge0:3/0:2 edge0:3/0:2.-45 edge0:2/0:1 edge0:2/0:1.-45 edge0:1/0:0 edge0:1/0:0.-45 edge0:0/0:-1"/>
    </vehicle>
    <vehicle id="N2.4" depart="48.00">
        <route edges="edge1:4/1:3 edge1:4/1:3.-45 edge1:3/1:2 edge1:3/1:2.-45 edge1:2/1:1 edge1:2/1:1.-45 edge1:1/1:0 edge1:1/1:0.-45 edge1:0/1:-1"/>
    </vehicle>
    <vehicle id="N3.4" depart="48.00">
        <route edges="edge2:4/2:3 edge2:4/2:3.-45 edge2:3/2:2 edge2:3/2:2.-45 edge2:2/2:1 edge2:2/2:1.-45 edge2:1/2:0 edge2:1/2:0.-45 edge2:0/2:-1"/>
    </vehicle>
    <vehicle id="N4.4" depart="48.00">
        <route edges="edge3:4/3:3 edge3:4/3:3.-45 edge3:3/3:2 edge3:3/3:2.-45 edge3:2/3:1 edge3:2/3:1.-45 edge3:1/3:0 edge3:1/3:0.-45 edge3:0/3:-1"/>
    </vehicle>
    <vehicle id="S1.4" depart="48.00">
        <route edges="edge0:-1/0:0 edge0:-1/0:0.-45 edge0:0/0:1 edge0:0/0:1.-45 edge0:1/0:2 edge0:1/0:2.-45 edge0:2/0:3 edge0:2/0:3.-45 edge0:3/1:3 edge0:3/1:3.-45 edge1:3/2:3 edge1:3/2:3.-45 edge2:3/3:3 edge2:3/3:3.-45 edge3:3/4:3"/>
    </vehicle>
    <vehicle id="S2.4" depart="48.00">
        <route edges="edge1:-1/1:0 edge1:-1/1:0.-45 edge1:0/1:1 edge1:0/1:1.-45 edge1:1/1:2 edge1:1/1:2.-45 edge1:2/1:3 edge1:2/1:3.-45 edge1:3/2:3 edge1:3/2:3.-45 edge2:3/3:3 edge2:3/3:3.-45 edge3:3/4:3"/>
    </vehicle>
    <vehicle id="S3.4" depart="48.00">
        <route edges="edge2:-1/2:0 edge2:-1/2:0.-45 edge2:0/2:1 edge2:0/2:1.-45 edge2:1/2:2 edge2:1/2:2.-45 edge2:2/2:3 edge2:2/2:3.-45 edge2:3/2:4"/>
    </vehicle>
    <vehicle id="S4.4" depart="48.00">
        <route edges="edge3:-1/3:0 edge3:-1/3:0.-45 edge3:0/3:1 edge3:0/3:1.-45 edge3:1/3:2 edge3:1/3:2.-45 edge3:2/3:3 edge3:2/3:3.-45 edge3:3/3:4"/>
    </vehicle>
    <vehicle id="W1.8" depart="48.00">
        <route edges="edge4:0/3:0 edge4:0/3:0.-45 edge3:0/2:0 edge3:0/2:0.-45 edge2:0/1:0 edge2:0/1:0.-45 edge1:0/0:0 edge1:0/0:0.-45 edge0:0/0:-1"/>
    </vehicle>
    <vehicle id="W2.8" depart="48.00">
        <route edges="edge4:1/3:1 edge4:1/3:1.-45 edge3:1/2:1 edge3:1/2:1.-45 edge2:1/1:1 edge2:1/1:1.-45 edge1:1/1:2 edge1:1/1:2.-45 edge1:2/1:3 edge1:2/1:3.-45 edge1:3/1:4"/>
    </vehicle>
    <vehicle id="W3.8" depart="48.00">
        <route edges="edge4:2/3:2 edge4:2/3:2.-45 edge3:2/2:2 edge3:2/2:2.-45 edge2:2/1:2 edge2:2/1:2.-45 edge1:2/1:3 edge1:2/1:3.-45 edge1:3/1:4"/>
    </vehicle>
    <vehicle id="W4.8" depart="48.00">
        <route edges="edge4:3/3:3 edge4:3/3:3.-45 edge3:3/3:4"/>
    </vehicle>
    <vehicle id="E1.9" depart="54.00">
        <route edges="edge-1:0/0:0 edge-1:0/0:0.-45 edge0:0/1:0 edge0:0/1:0.-45 edge1:0/2:0 edge1:0/2:0.-45 edge2:0/3:0 edge2:0/3:0.-45 edge3:0/4:0"/>
    </vehicle>
    <vehicle id="E2.9" depart="54.00">
        <route edges="edge-1:1/0:1 edge-1:1/0:1.-45 edge0:1/1:1 edge0:1/1:1.-45 edge1:1/2:1 edge1:1/2:1.-45 edge2:1/3:1 edge2:1/3:1.-45 edge3:1/4:1"/>
    </vehicle>
    <vehicle id="E3.9" depart="54.00">
        <route edges="edge-1:2/0:2 edge-1:2/0:2.-45 edge0:2/1:2 edge0:2/1:2.-45 edge1:2/2:2 edge1:2/2:2.-45 edge2:2/3:2 edge2:2/3:2.-45 edge3:2/4:2"/>
    </vehicle>
    <vehicle id="E4.9" depart="54.00">
        <route edges="edge-1:3/0:3 edge-1:3/0:3.-45 edge0:3/1:3 edge0:3/1:3.-45 edge1:3/2:3 edge1:3/2:3.-45 edge2:3/3:3 edge2:3/3:3.-45 edge3:3/4:3"/>
    </vehicle>
    <vehicle id="W1.9" depart="54.00">
        <route edges="edge4:0/3:0 edge4:0/3:0.-45 edge3:0/2:0 edge3:0/2:0.-45 edge2:0/1:0 edge2:0/1:0.-45 edge1:0/0:0 edge1:0/0:0.-45 edge0:0/0:1 edge0:0/0:1.-45 edge0:1/-1:1"/>
    </vehicle>
    <vehicle id="W2.9" depart="54.00">
        <route edges="edge4:1/3:1 edge4:1/3:1.-45 edge3:1/3:2 edge3:1/3:2.-45 edge3:2/4:2"/>
    </vehicle>
    <vehicle id="W3.9" depart="54.00">
        <route edges="edge4:2/3:2 edge4:2/3:2.-45 edge3:2/2:2 edge3:2/2:2.-45 edge2:2/1:2 edge2:2/1:2.-45 edge1:2/0:2 edge1:2/0:2.-45 edge0:2/-1:2"/>
    </vehicle>
    <vehicle id="W4.9" depart="54.00">
        <route edges="edge4:3/3:3 edge4:3/3:3.-45 edge3:3/3:2 edge3:3/3:2.-45 edge3:2/3:1 edge3:2/3:1.-45 edge3:1/3:0 edge3:1/3:0.-45 edge3:0/3:-1"/>
    </vehicle>
    <vehicle id="E1.10" depart="60.00">
        <route edges="edge-1:0/0:0 edge-1:0/0:0.-45 edge0:0/1:0 edge0:0/1:0.-45 edge1:0/2:0 edge1:0/2:0.-45 edge2:0/3:0 edge2:0/3:0.-45 edge3:0/4:0"/>
    </vehicle>
    <vehicle id="E2.10" depart="60.00">
        <route edges="edge-1:1/0:1 edge-1:1/0:1.-45 edge0:1/1:1 edge0:1/1:1.-45 edge1:1/1:0 edge1:1/1:0.-45 edge1:0/1:-1"/>
    </vehicle>
    <vehicle id="E3.10" depart="60.00">
        <route edges="edge-1:2/0:2 edge-1:2/0:2.-45 edge0:2/1:2 edge0:2/1:2.-45 edge1:2/2:2 edge1:2/2:2.-45 edge2:2/3:2 edge2:2/3:2.-45 edge3:2/4:2"/>
    </vehicle>
    <vehicle id="E4.10" depart="60.00">
        <route edges="edge-1:3/0:3 edge-1:3/0:3.-45 edge0:3/0:2 edge0:3/0:2.-45 edge0:2/0:1 edge0:2/0:1.-45 edge0:1/-1:1"/>
    </vehicle>
    <vehicle id="N1.5" depart="60.00">
        <route edges="edge0:4/0:3 edge0:4/0:3.-45 edge0:3/-1:3"/>
    </vehicle>
    <vehicle id="N2.5" depart="60.00">
        <route edges="edge1:4/1:3 edge1:4/1:3.-45 edge1:3/1:2 edge1:3/1:2.-45 edge1:2/1:1 edge1:2/1:1.-45 edge1:1/1:0 edge1:1/1:0.-45 edge1:0/0:0 edge1:0/0:0.-45 edge0:0/-1:0"/>
    </vehicle>
    <vehicle id="N3.5" depart="60.00">
        <route edges="edge2:4/2:3 edge2:4/2:3.-45 edge2:3/1:3 edge2:3/1:3.-45 edge1:3/0:3 edge1:3/0:3.-45 edge0:3/0:4"/>
    </vehicle>
    <vehicle id="N4.5" depart="60.00">
        <route edges="edge3:4/3:3 edge3:4/3:3.-45 edge3:3/4:3"/>
    </vehicle>
    <vehicle id="S1.5" depart="60.00">
        <route edges="edge0:-1/0:0 edge0:-1/0:0.-45 edge0:0/0:1 edge0:0/0:1.-45 edge0:1/0:2 edge0:1/0:2.-45 edge0:2/0:3 edge0:2/0:3.-45 edge0:3/0:4"/>
    </vehicle>
    <vehicle id="S2.5" depart="60.00">
        <route edges="edge1:-1/1:0 edge1:-1/1:0.-45 edge1:0/1:1 edge1:0/1:1.-45 edge1:1/0:1 edge1:1/0:1.-45 edge0:1/-1:1"/>
    </vehicle>
    <vehicle id="S3.5" depart="60.00">
        <route edges="edge2:-1/2:0 edge2:-1/2:0.-45 edge2:0/2:1 edge2:0/2:1.-45 edge2:1/2:2 edge2:1/2:2.-45 edge2:2/2:3 edge2:2/2:3.-45 edge2:3/2:4"/>
    </vehicle>
    <vehicle id="S4.5" depart="60.00">
        <route edges="edge3:-1/3:0 edge3:-1/3:0.-45 edge3:0/3:1 edge3:0/3:1.-45 edge3:1/3:2 edge3:1/3:2.-45 edge3:2/3:3 edge3:2/3:3.-45 edge3:3/3:4"/>
    </vehicle>
    <vehicle id="W1.10" depart="60.00">
        <route edges="edge4:0/3:0 edge4:0/3:0.-45 edge3:0/3:-1"/>
    </vehicle>
    <vehicle id="W2.10" depart="60.00">
        <route edges="edge4:1/3:1 edge4:1/3:1.-45 edge3:1/2:1 edge3:1/2:1.-45 edge2:1/1:1 edge2:1/1:1.-45 edge1:1/0:1 edge1:1/0:1.-45 edge0:1/-1:1"/>
    </vehicle>
    <vehicle id="W3.10" depart="60.00">
        <route edges="edge4:2/3:2 edge4:2/3:2.-45 edge3:2/2:2 edge3:2/2:2.-45 edge2:2/1:2 edge2:2/1:2.-45 edge1:2/1:3 edge1:2/1:3.-45 edge1:3/1:4"/>
    </vehicle>
    <vehicle id="W4.10" depart="60.00">
        <route edges="edge4:3/3:3 edge4:3/3:3.-45 edge3:3/2:3 edge3:3/2:3.-45 edge2:3/1:3 edge2:3/1:3.-45 edge1:3/0:3 edge1:3/0:3.-45 edge0:3/-1:3"/>
    </vehicle>
    <vehicle id="E1.11" depart="66.00">
        <route edges="edge-1:0/0:0 edge-1:0/0:0.-45 edge0:0/1:0 edge0:0/1:0.-45 edge1:0/2:0 edge1:0/2:0.-45 edge2:0/3:0 edge2:0/3:0.-45 edge3:0/4:0"/>
    </vehicle>
    <vehicle id="E2.11" depart="66.00">
        <route edges="edge-1:1/0:1 edge-1:1/0:1.-45 edge0:1/0:2 edge0:1/0:2.-45 edge0:2/0:3 edge0:2/0:3.-45 edge0:3/0:4"/>
    </vehicle>
    <vehicle id="E3.11" depart="66.00">
        <route edges="edge-1:2/0:2 edge-1:2/0:2.-45 edge0:2/1:2 edge0:2/1:2.-45 edge1:2/1:3 edge1:2/1:3.-45 edge1:3/1:4"/>
    </vehicle>
    <vehicle id="E4.11" depart="66.00">
        <route edges="edge-1:3/0:3 edge-1:3/0:3.-45 edge0:3/1:3 edge0:3/1:3.-45 edge1:3/2:3 edge1:3/2:3.-45 edge2:3/2:2 edge2:3/2:2.-45 edge2:2/2:1 edge2:2/2:1.-45 edge2:1/2:0 edge2:1/2:0.-45 edge2:0/2:-1"/>
    </vehicle>
    <vehicle id="W1.11" depart="66.00">
        <route edges="edge4:0/3:0 edge4:0/3:0.-45 edge3:0/2:0 edge3:0/2:0.-45 edge2:0/2:1 edge2:0/2:1.-45 edge2:1/1:1 edge2:1/1:1.-45 edge1:1/0:1 edge1:1/0:1.-45 edge0:1/-1:1"/>
    </vehicle>
    <vehicle id="W2.11" depart="66.00">
        <route edges="edge4:1/3:1 edge4:1/3:1.-45 edge3:1/3:2 edge3:1/3:2.-45 edge3:2/3:3 edge3:2/3:3.-45 edge3:3/3:4"/>
    </vehicle>
    <vehicle id="W3.11" depart="66.00">
        <route edges="edge4:2/3:2 edge4:2/3:2.-45 edge3:2/2:2 edge3:2/2:2.-45 edge2:2/2:1 edge2:2/2:1.-45 edge2:1/2:0 edge2:1/2:0.-45 edge2:0/2:-1"/>
    </vehicle>
    <vehicle id="W4.11" depart="66.00">
        <route edges="edge4:3/3:3 edge4:3/3:3.-45 edge3:3/2:3 edge3:3/2:3.-45 edge2:3/1:3 edge2:3/1:3.-45 edge1:3/0:3 edge1:3/0:3.-45 edge0:3/-1:3"/>
    </vehicle>
    <vehicle id="E1.12" depart="72.00">