<nodes><node id="node-1:-1" type="traffic_light" x="0" y="0" /><node id="node-1:0" type="traffic_light" x="0" y="100" /><node id="node-1:1" type="traffic_light" x="0" y="400" /><node id="node-1:2" type="traffic_light" x="0" y="700" /><node id="node-1:3" type="traffic_light" x="0" y="1000" /><node id="node-1:4" type="traffic_light" x="0" y="1100" /><node id="node0:-1" type="traffic_light" x="100" y="0" /><node id="node0:0" type="traffic_light" x="100" y="100" /><node id="node0:1" type="traffic_light" x="100" y="400" /><node id="node0:2" type="traffic_light" x="100" y="700" /><node id="node0:3" type="traffic_light" x="100" y="1000" /><node id="node0:4" type="traffic_light" x="100" y="1100" /><node id="node1:-1" type="traffic_light" x="400" y="0" /><node id="node1:0" type="traffic_light" x="400" y="100" /><node id="node1:1" type="traffic_light" x="400" y="400" /><node id="node1:2" type="traffic_light" x="400" y="700" /><node id="node1:3" type="traffic_light" x="400" y="1000" /><node id="node1:4" type="traffic_light" x="400" y="1100" /><node id="node2:-1" type="traffic_light" x="700" y="0" /><node id="node2:0" type="traffic_light" x="700" y="100" /><node id="node2:1" type="traffic_light" x="700" y="400" /><node id="node2:2" type="traffic_light" x="700" y="700" /><node id="node2:3" type="traffic_light" x="700" y="1000" /><node id="node2:4" type="traffic_light" x="700" y="1100" /><node id="node3:-1" type="traffic_light" x="1000" y="0" /><node id="node3:0" type="traffic_light" x="1000" y="100" /><node id="node3:1" type="traffic_light" x="1000" y="400" /><node id="node3:2" type="traffic_light" x="1000" y="700" /><node id="node3:3" type="traffic_light" x="1000" y="1000" /><node id="node3:4" type="traffic_light" x="1000" y="1100" /><node id="node4:-1" type="traffic_light" x="1100" y="0" /><node id="node4:0" type="traffic_light" x="1100" y="100" /><node id="node4:1" type="traffic_light" x="1100" y="400" /><node id="node4:2" type="traffic_light" x="1100" y="700" /><node id="node4:3" type="traffic_light" x="1100" y="1000" /><node id="node4:4" type="traffic_light" x="1100" y="1100" /></nodes>